
 OpenBabel10072616273D

 12 11  0  0  0  0  0  0  0  0999 V2000
    0.9784    0.0902   -0.1216 C   0  0  0  0  0  0  0  0  0  0  0  0
    0.3873    0.1927   -1.4224 N   0  0  0  0  0  0  0  0  0  0  0  0
   -0.9495    0.0756   -1.6743 C   0  0  0  0  0  0  0  0  0  0  0  0
   -2.1451   -0.3931   -0.6231 S   0  0  0  0  0  0  0  0  0  0  0  0
   -1.2646    0.3848   -2.9596 N   0  0  0  0  0  0  0  0  0  0  0  0
    2.3652    0.0318   -0.3484 O   0  0  0  0  0  0  0  0  0  0  0  0
    0.6436   -0.8075    0.4056 H   0  0  0  0  0  0  0  0  0  0  0  0
    0.7357    0.9846    0.4580 H   0  0  0  0  0  0  0  0  0  0  0  0
    0.8868    0.8139   -2.0412 H   0  0  0  0  0  0  0  0  0  0  0  0
   -0.5637    0.3167   -3.6839 H   0  0  0  0  0  0  0  0  0  0  0  0
   -2.2230    0.2215   -3.2482 H   0  0  0  0  0  0  0  0  0  0  0  0
    2.4999   -0.7836   -0.8588 H   0  0  0  0  0  0  0  0  0  0  0  0
  1  2  1  0  0  0  0
  1  6  1  0  0  0  0
  1  7  1  0  0  0  0
  1  8  1  0  0  0  0
  2  3  1  0  0  0  0
  2  9  1  0  0  0  0
  3  4  2  0  0  0  0
  3  5  1  0  0  0  0
  5 10  1  0  0  0  0
  5 11  1  0  0  0  0
  6 12  1  0  0  0  0
M  END
