
 OpenBabel10072619503D

 49 49  0  0  0  0  0  0  0  0999 V2000
    0.6158    0.7658   -0.4862 C   0  0  0  0  0  0  0  0  0  0  0  0
    2.1277    0.6893   -0.6004 C   0  0  0  0  0  0  0  0  0  0  0  0
    2.6981    1.3976    0.4985 O   0  0  0  0  0  0  0  0  0  0  0  0
    4.0567    1.5540    0.4849 C   0  0  0  0  0  0  0  0  0  0  0  0
    4.9482    0.9338   -0.3904 C   0  0  0  0  0  0  0  0  0  0  0  0
    6.3250    1.1906   -0.3019 C   0  0  0  0  0  0  0  0  0  0  0  0
    6.8235    2.0767    0.6541 C   0  0  0  0  0  0  0  0  0  0  0  0
    5.9262    2.6791    1.5426 C   0  0  0  0  0  0  0  0  0  0  0  0
    4.5568    2.4143    1.4608 C   0  0  0  0  0  0  0  0  0  0  0  0
    8.1898    2.3988    0.8066 N   0  0  0  0  0  0  0  0  0  0  0  0
    9.2250    2.1014   -0.0507 C   0  0  0  0  0  0  0  0  0  0  0  0
    9.0669    1.5888   -1.1585 O   0  0  0  0  0  0  0  0  0  0  0  0
   10.5039    2.4488    0.4153 N   0  0  0  0  0  0  0  0  0  0  0  0
   10.8073    2.9920    1.7521 C   0  0  0  0  0  0  0  0  0  0  0  0
   11.1434    4.4949    1.7408 C   0  0  0  0  0  0  0  0  0  0  0  0
    9.9527    5.3472    1.2992 C   0  0  0  0  0  0  0  0  0  0  0  0
   11.6154    4.9357    3.1279 C   0  0  0  0  0  0  0  0  0  0  0  0
   11.5966    2.4144   -0.5760 C   0  0  0  0  0  0  0  0  0  0  0  0
   12.9177    1.7775   -0.1039 C   0  0  0  0  0  0  0  0  0  0  0  0
   12.7259    0.2996    0.2391 C   0  0  0  0  0  0  0  0  0  0  0  0
   13.9861    1.9225   -1.1924 C   0  0  0  0  0  0  0  0  0  0  0  0
    0.1378    0.2509   -1.3241 H   0  0  0  0  0  0  0  0  0  0  0  0
    0.2796    1.8075   -0.4764 H   0  0  0  0  0  0  0  0  0  0  0  0
    0.2718    0.3114    0.4485 H   0  0  0  0  0  0  0  0  0  0  0  0
    2.4328    1.1422   -1.5513 H   0  0  0  0  0  0  0  0  0  0  0  0
    2.4359   -0.3614   -0.5681 H   0  0  0  0  0  0  0  0  0  0  0  0
    4.6122    0.2425   -1.1559 H   0  0  0  0  0  0  0  0  0  0  0  0
    6.9810    0.6798   -1.0012 H   0  0  0  0  0  0  0  0  0  0  0  0
    6.2770    3.3682    2.3060 H   0  0  0  0  0  0  0  0  0  0  0  0
    3.8729    2.8941    2.1569 H   0  0  0  0  0  0  0  0  0  0  0  0
    8.3817    3.0930    1.5064 H   0  0  0  0  0  0  0  0  0  0  0  0
   11.6526    2.4244    2.1566 H   0  0  0  0  0  0  0  0  0  0  0  0
    9.9908    2.7930    2.4539 H   0  0  0  0  0  0  0  0  0  0  0  0
   11.9694    4.6767    1.0422 H   0  0  0  0  0  0  0  0  0  0  0  0
    9.1031    5.2258    1.9801 H   0  0  0  0  0  0  0  0  0  0  0  0
    9.6234    5.0778    0.2907 H   0  0  0  0  0  0  0  0  0  0  0  0
   10.2224    6.4088    1.2826 H   0  0  0  0  0  0  0  0  0  0  0  0
   10.8237    4.8137    3.8749 H   0  0  0  0  0  0  0  0  0  0  0  0
   11.9148    5.9896    3.1188 H   0  0  0  0  0  0  0  0  0  0  0  0
   12.4804    4.3462    3.4508 H   0  0  0  0  0  0  0  0  0  0  0  0
   11.7699    3.4535   -0.8823 H   0  0  0  0  0  0  0  0  0  0  0  0
   11.2704    1.8938   -1.4823 H   0  0  0  0  0  0  0  0  0  0  0  0
   13.2912    2.2996    0.7837 H   0  0  0  0  0  0  0  0  0  0  0  0
   12.4114   -0.2703   -0.6423 H   0  0  0  0  0  0  0  0  0  0  0  0
   11.9680    0.1646    1.0179 H   0  0  0  0  0  0  0  0  0  0  0  0
   13.6632   -0.1336    0.6052 H   0  0  0  0  0  0  0  0  0  0  0  0
   13.6806    1.4137   -2.1129 H   0  0  0  0  0  0  0  0  0  0  0  0
   14.9372    1.4871   -0.8651 H   0  0  0  0  0  0  0  0  0  0  0  0
   14.1615    2.9780   -1.4297 H   0  0  0  0  0  0  0  0  0  0  0  0
  1  2  1  0  0  0  0
  1 22  1  0  0  0  0
  1 23  1  0  0  0  0
  1 24  1  0  0  0  0
  2  3  1  0  0  0  0
  2 25  1  0  0  0  0
  2 26  1  0  0  0  0
  3  4  1  0  0  0  0
  4  5  2  0  0  0  0
  4  9  1  0  0  0  0
  5  6  1  0  0  0  0
  5 27  1  0  0  0  0
  6  7  2  0  0  0  0
  6 28  1  0  0  0  0
  7  8  1  0  0  0  0
  7 10  1  0  0  0  0
  8  9  2  0  0  0  0
  8 29  1  0  0  0  0
  9 30  1  0  0  0  0
 10 11  1  0  0  0  0
 10 31  1  0  0  0  0
 11 12  2  0  0  0  0
 11 13  1  0  0  0  0
 13 14  1  0  0  0  0
 13 18  1  0  0  0  0
 14 15  1  0  0  0  0
 14 32  1  0  0  0  0
 14 33  1  0  0  0  0
 15 16  1  0  0  0  0
 15 17  1  0  0  0  0
 15 34  1  0  0  0  0
 16 35  1  0  0  0  0
 16 36  1  0  0  0  0
 16 37  1  0  0  0  0
 17 38  1  0  0  0  0
 17 39  1  0  0  0  0
 17 40  1  0  0  0  0
 18 19  1  0  0  0  0
 18 41  1  0  0  0  0
 18 42  1  0  0  0  0
 19 20  1  0  0  0  0
 19 21  1  0  0  0  0
 19 43  1  0  0  0  0
 20 44  1  0  0  0  0
 20 45  1  0  0  0  0
 20 46  1  0  0  0  0
 21 47  1  0  0  0  0
 21 48  1  0  0  0  0
 21 49  1  0  0  0  0
M  END
