
 OpenBabel10072619503D

 49 51  0  0  0  0  0  0  0  0999 V2000
    1.2275   -0.5936   -0.5196 C   0  0  0  0  0  0  0  0  0  0  0  0
    2.5263   -0.1484   -0.1581 O   0  0  0  0  0  0  0  0  0  0  0  0
    3.0848   -0.7086    0.9550 C   0  0  0  0  0  0  0  0  0  0  0  0
    2.4796   -1.6252    1.8129 C   0  0  0  0  0  0  0  0  0  0  0  0
    3.1687   -2.1048    2.9371 C   0  0  0  0  0  0  0  0  0  0  0  0
    4.4764   -1.6837    3.2068 C   0  0  0  0  0  0  0  0  0  0  0  0
    5.0722   -0.7582    2.3416 C   0  0  0  0  0  0  0  0  0  0  0  0
    4.3831   -0.2815    1.2245 C   0  0  0  0  0  0  0  0  0  0  0  0
    5.2384   -2.1202    4.3843 C   0  0  0  0  0  0  0  0  0  0  0  0
    5.1331   -3.3208    4.9737 C   0  0  0  0  0  0  0  0  0  0  0  0
    6.0361   -3.6314    6.1046 C   0  0  0  0  0  0  0  0  0  0  0  0
    6.9610   -2.9187    6.4599 O   0  0  0  0  0  0  0  0  0  0  0  0
    5.6514   -4.8539    6.6380 O   0  0  0  0  0  0  0  0  0  0  0  0
    6.3354   -5.3682    7.7583 C   0  0  0  0  0  0  0  0  0  0  0  0
    6.8016   -4.5626    8.7935 C   0  0  0  0  0  0  0  0  0  0  0  0
    7.4496   -5.1441    9.8840 C   0  0  0  0  0  0  0  0  0  0  0  0
    7.6067   -6.5331    9.9537 C   0  0  0  0  0  0  0  0  0  0  0  0
    7.1012   -7.3442    8.9331 C   0  0  0  0  0  0  0  0  0  0  0  0
    6.4633   -6.7571    7.8318 C   0  0  0  0  0  0  0  0  0  0  0  0
    8.2946   -7.1314   11.1207 C   0  0  0  0  0  0  0  0  0  0  0  0
    8.7996   -6.3677   12.0329 N   0  0  0  0  0  0  0  0  0  0  0  0
    9.4204   -6.9590   13.0867 N   0  0  0  0  0  0  0  0  0  0  0  0
    9.9348   -6.1465   14.0885 C   0  0  0  0  0  0  0  0  0  0  0  0
    9.8384   -4.9224   14.1277 O   0  0  0  0  0  0  0  0  0  0  0  0
   10.6197   -6.8431   15.2068 C   0  0  0  0  0  0  0  0  0  0  0  0
   11.2587   -8.0722   15.0416 C   0  0  0  0  0  0  0  0  0  0  0  0
   11.8679   -8.6341   16.1497 C   0  0  0  0  0  0  0  0  0  0  0  0
   11.8843   -8.0583   17.3706 N   0  0  0  0  0  0  0  0  0  0  0  0
   11.2827   -6.8555   17.4929 C   0  0  0  0  0  0  0  0  0  0  0  0
   10.6445   -6.2126   16.4515 C   0  0  0  0  0  0  0  0  0  0  0  0
    0.9380   -0.0571   -1.4279 H   0  0  0  0  0  0  0  0  0  0  0  0
    0.4925   -0.3555    0.2562 H   0  0  0  0  0  0  0  0  0  0  0  0
    1.2311   -1.6640   -0.7455 H   0  0  0  0  0  0  0  0  0  0  0  0
    1.4677   -1.9773    1.6444 H   0  0  0  0  0  0  0  0  0  0  0  0
    2.6517   -2.7900    3.6046 H   0  0  0  0  0  0  0  0  0  0  0  0
    6.0821   -0.3962    2.5239 H   0  0  0  0  0  0  0  0  0  0  0  0
    4.8623    0.4310    0.5583 H   0  0  0  0  0  0  0  0  0  0  0  0
    5.9685   -1.3977    4.7567 H   0  0  0  0  0  0  0  0  0  0  0  0
    4.4514   -4.0978    4.6527 H   0  0  0  0  0  0  0  0  0  0  0  0
    6.6805   -3.4839    8.7747 H   0  0  0  0  0  0  0  0  0  0  0  0
    7.8283   -4.5012   10.6779 H   0  0  0  0  0  0  0  0  0  0  0  0
    7.1965   -8.4249    8.9775 H   0  0  0  0  0  0  0  0  0  0  0  0
    6.0678   -7.3784    7.0336 H   0  0  0  0  0  0  0  0  0  0  0  0
    8.3529   -8.2332   11.1707 H   0  0  0  0  0  0  0  0  0  0  0  0
    9.3850   -7.9653   13.1833 H   0  0  0  0  0  0  0  0  0  0  0  0
   11.3196   -8.5744   14.0840 H   0  0  0  0  0  0  0  0  0  0  0  0
   12.3807   -9.5902   16.0852 H   0  0  0  0  0  0  0  0  0  0  0  0
   11.3289   -6.4077   18.4814 H   0  0  0  0  0  0  0  0  0  0  0  0
   10.1783   -5.2441   16.6021 H   0  0  0  0  0  0  0  0  0  0  0  0
  1  2  1  0  0  0  0
  1 31  1  0  0  0  0
  1 32  1  0  0  0  0
  1 33  1  0  0  0  0
  2  3  1  0  0  0  0
  3  4  2  0  0  0  0
  3  8  1  0  0  0  0
  4  5  1  0  0  0  0
  4 34  1  0  0  0  0
  5  6  2  0  0  0  0
  5 35  1  0  0  0  0
  6  7  1  0  0  0  0
  6  9  1  0  0  0  0
  7  8  2  0  0  0  0
  7 36  1  0  0  0  0
  8 37  1  0  0  0  0
  9 10  2  0  0  0  0
  9 38  1  0  0  0  0
 10 11  1  0  0  0  0
 10 39  1  0  0  0  0
 11 12  2  0  0  0  0
 11 13  1  0  0  0  0
 13 14  1  0  0  0  0
 14 15  2  0  0  0  0
 14 19  1  0  0  0  0
 15 16  1  0  0  0  0
 15 40  1  0  0  0  0
 16 17  2  0  0  0  0
 16 41  1  0  0  0  0
 17 18  1  0  0  0  0
 17 20  1  0  0  0  0
 18 19  2  0  0  0  0
 18 42  1  0  0  0  0
 19 43  1  0  0  0  0
 20 21  2  0  0  0  0
 20 44  1  0  0  0  0
 21 22  1  0  0  0  0
 22 23  1  0  0  0  0
 22 45  1  0  0  0  0
 23 24  2  0  0  0  0
 23 25  1  0  0  0  0
 25 26  2  0  0  0  0
 25 30  1  0  0  0  0
 26 27  1  0  0  0  0
 26 46  1  0  0  0  0
 27 28  2  0  0  0  0
 27 47  1  0  0  0  0
 28 29  1  0  0  0  0
 29 30  2  0  0  0  0
 29 48  1  0  0  0  0
 30 49  1  0  0  0  0
M  END
