
 OpenBabel10072619553D

 43 46  0  0  0  0  0  0  0  0999 V2000
    7.9211    4.6209    3.3726 C   0  0  0  0  0  0  0  0  0  0  0  0
    7.2134    3.5907    2.6986 O   0  0  0  0  0  0  0  0  0  0  0  0
    7.1645    3.5741    1.2796 C   0  0  0  0  0  0  0  0  0  0  0  0
    7.7542    4.4811    0.6127 O   0  0  0  0  0  0  0  0  0  0  0  0
    6.4068    2.4714    0.5581 C   0  0  0  0  0  0  0  0  0  0  0  0
    6.8113    2.0831   -0.6456 C   0  0  0  0  0  0  0  0  0  0  0  0
    6.2453    0.9892   -1.2545 C   0  0  0  0  0  0  0  0  0  0  0  0
    5.1938    0.3304   -0.6802 C   0  0  0  0  0  0  0  0  0  0  0  0
    4.8697    0.6978    0.5462 C   0  0  0  0  0  0  0  0  0  0  0  0
    5.3076    1.8905    1.1688 C   0  0  0  0  0  0  0  0  0  0  0  0
    4.6330    2.4809    2.3962 C   0  0  0  0  0  0  0  0  0  0  0  0
    3.9982    1.7786    3.3454 C   0  0  0  0  0  0  0  0  0  0  0  0
    3.6446    2.7278    4.3359 C   0  0  0  0  0  0  0  0  0  0  0  0
    4.0954    3.9348    3.9112 C   0  0  0  0  0  0  0  0  0  0  0  0
    4.7297    3.7990    2.6999 O   0  0  0  0  0  0  0  0  0  0  0  0
    3.9242    5.2440    4.6642 C   0  0  0  0  0  0  0  0  0  0  0  0
    2.8257    6.0160    4.4453 C   0  0  0  0  0  0  0  0  0  0  0  0
    1.7695    5.5693    3.4477 C   0  0  0  0  0  0  0  0  0  0  0  0
    0.8932    5.1987    2.6201 N   0  0  0  0  0  0  0  0  0  0  0  0
    2.6545    7.3252    5.1983 C   0  0  0  0  0  0  0  0  0  0  0  0
    3.5459    7.7297    6.0563 N   0  0  0  0  0  0  0  0  0  0  0  0
    3.1660    8.8929    6.7050 C   0  0  0  0  0  0  0  0  0  0  0  0
    1.9309    9.3529    6.3289 C   0  0  0  0  0  0  0  0  0  0  0  0
    1.2362    8.3122    5.1137 S   0  0  0  0  0  0  0  0  0  0  0  0
    4.0362    9.5929    7.7361 C   0  0  0  0  0  0  0  0  0  0  0  0
    5.2490    9.2046    8.1549 C   0  0  0  0  0  0  0  0  0  0  0  0
    5.5886   10.1048    9.1949 C   0  0  0  0  0  0  0  0  0  0  0  0
    4.5544   10.9729    9.3251 C   0  0  0  0  0  0  0  0  0  0  0  0
    3.5740   10.6754    8.4096 O   0  0  0  0  0  0  0  0  0  0  0  0
    7.8487    4.4708    4.4296 H   0  0  0  0  0  0  0  0  0  0  0  0
    7.4983    5.5701    3.1174 H   0  0  0  0  0  0  0  0  0  0  0  0
    8.9497    4.5981    3.0788 H   0  0  0  0  0  0  0  0  0  0  0  0
    7.5576    2.6078   -1.1281 H   0  0  0  0  0  0  0  0  0  0  0  0
    6.6192    0.6600   -2.1583 H   0  0  0  0  0  0  0  0  0  0  0  0
    4.6809   -0.4138   -1.1783 H   0  0  0  0  0  0  0  0  0  0  0  0
    4.2542    0.0713    1.0882 H   0  0  0  0  0  0  0  0  0  0  0  0
    3.8080    0.7643    3.3529 H   0  0  0  0  0  0  0  0  0  0  0  0
    3.1392    2.5370    5.2152 H   0  0  0  0  0  0  0  0  0  0  0  0
    4.6414    5.5473    5.3416 H   0  0  0  0  0  0  0  0  0  0  0  0
    1.4758   10.1966    6.7112 H   0  0  0  0  0  0  0  0  0  0  0  0
    5.8140    8.4188    7.7966 H   0  0  0  0  0  0  0  0  0  0  0  0
    6.4591   10.1008    9.7492 H   0  0  0  0  0  0  0  0  0  0  0  0
    4.5104   11.7431   10.0106 H   0  0  0  0  0  0  0  0  0  0  0  0
  1  2  1  0  0  0  0
  1 30  1  0  0  0  0
  1 31  1  0  0  0  0
  1 32  1  0  0  0  0
  2  3  1  0  0  0  0
  3  4  2  0  0  0  0
  3  5  1  0  0  0  0
  5  6  2  0  0  0  0
  5 10  1  0  0  0  0
  6  7  1  0  0  0  0
  6 33  1  0  0  0  0
  7  8  2  0  0  0  0
  7 34  1  0  0  0  0
  8  9  1  0  0  0  0
  8 35  1  0  0  0  0
  9 10  2  0  0  0  0
  9 36  1  0  0  0  0
 10 11  1  0  0  0  0
 11 12  2  0  0  0  0
 11 15  1  0  0  0  0
 12 13  1  0  0  0  0
 12 37  1  0  0  0  0
 13 14  2  0  0  0  0
 13 38  1  0  0  0  0
 14 15  1  0  0  0  0
 14 16  1  0  0  0  0
 16 17  2  0  0  0  0
 16 39  1  0  0  0  0
 17 18  1  0  0  0  0
 17 20  1  0  0  0  0
 18 19  3  0  0  0  0
 20 21  2  0  0  0  0
 20 24  1  0  0  0  0
 21 22  1  0  0  0  0
 22 23  2  0  0  0  0
 22 25  1  0  0  0  0
 23 24  1  0  0  0  0
 23 40  1  0  0  0  0
 25 26  2  0  0  0  0
 25 29  1  0  0  0  0
 26 27  1  0  0  0  0
 26 41  1  0  0  0  0
 27 28  2  0  0  0  0
 27 42  1  0  0  0  0
 28 29  1  0  0  0  0
 28 43  1  0  0  0  0
M  END
