
 OpenBabel10072619483D

 24 24  0  0  0  0  0  0  0  0999 V2000
    1.4888   -0.2651   -0.1399 C   0  0  0  0  0  0  0  0  0  0  0  0
    0.6581   -1.3900   -0.0564 C   0  0  0  0  0  0  0  0  0  0  0  0
   -0.7272   -1.2429   -0.0221 C   0  0  0  0  0  0  0  0  0  0  0  0
   -1.2673    0.0465   -0.0636 C   0  0  0  0  0  0  0  0  0  0  0  0
   -0.4365    1.1717   -0.1440 C   0  0  0  0  0  0  0  0  0  0  0  0
    0.9488    1.0242   -0.1872 C   0  0  0  0  0  0  0  0  0  0  0  0
    1.8510    2.1020   -0.2623 N   0  0  0  0  0  0  0  0  0  0  0  0
    1.5568    3.4318   -0.3973 C   0  0  0  0  0  0  0  0  0  0  0  0
    0.4655    3.9613   -0.5444 O   0  0  0  0  0  0  0  0  0  0  0  0
    2.6822    4.2043   -0.3617 N   0  0  0  0  0  0  0  0  0  0  0  0
   -1.6279   -2.3206    0.0653 N   0  0  0  0  0  0  0  0  0  0  0  0
   -1.3391   -3.6578    0.0274 C   0  0  0  0  0  0  0  0  0  0  0  0
   -0.2588   -4.2007   -0.1484 O   0  0  0  0  0  0  0  0  0  0  0  0
   -2.4570   -4.4209    0.2068 N   0  0  0  0  0  0  0  0  0  0  0  0
    2.5640   -0.4214   -0.1672 H   0  0  0  0  0  0  0  0  0  0  0  0
    1.1269   -2.3686   -0.0196 H   0  0  0  0  0  0  0  0  0  0  0  0
   -2.3425    0.2031   -0.0361 H   0  0  0  0  0  0  0  0  0  0  0  0
   -0.9056    2.1505   -0.1719 H   0  0  0  0  0  0  0  0  0  0  0  0
    2.8306    1.8709   -0.3334 H   0  0  0  0  0  0  0  0  0  0  0  0
    3.3940    3.9447    0.3052 H   0  0  0  0  0  0  0  0  0  0  0  0
    2.4661    5.1943   -0.3684 H   0  0  0  0  0  0  0  0  0  0  0  0
   -2.6107   -2.0944    0.0416 H   0  0  0  0  0  0  0  0  0  0  0  0
   -3.1221   -4.1024    0.8959 H   0  0  0  0  0  0  0  0  0  0  0  0
   -2.2400   -5.4087    0.2697 H   0  0  0  0  0  0  0  0  0  0  0  0
  1  2  2  0  0  0  0
  1  6  1  0  0  0  0
  1 15  1  0  0  0  0
  2  3  1  0  0  0  0
  2 16  1  0  0  0  0
  3  4  2  0  0  0  0
  3 11  1  0  0  0  0
  4  5  1  0  0  0  0
  4 17  1  0  0  0  0
  5  6  2  0  0  0  0
  5 18  1  0  0  0  0
  6  7  1  0  0  0  0
  7  8  1  0  0  0  0
  7 19  1  0  0  0  0
  8  9  2  0  0  0  0
  8 10  1  0  0  0  0
 10 20  1  0  0  0  0
 10 21  1  0  0  0  0
 11 12  1  0  0  0  0
 11 22  1  0  0  0  0
 12 13  2  0  0  0  0
 12 14  1  0  0  0  0
 14 23  1  0  0  0  0
 14 24  1  0  0  0  0
M  END
