
 OpenBabel10072620203D

 65 70  0  0  0  0  0  0  0  0999 V2000
    4.3977    2.5261   -0.2086 C   0  0  0  0  0  0  0  0  0  0  0  0
    3.5789    1.2928   -0.0512 C   0  0  0  0  0  0  0  0  0  0  0  0
    2.2405    1.1413    0.2812 C   0  0  0  0  0  0  0  0  0  0  0  0
    1.9677   -0.2547    0.3759 C   0  0  0  0  0  0  0  0  0  0  0  0
    0.8386   -1.0213    0.7345 C   0  0  0  0  0  0  0  0  0  0  0  0
    0.9239   -2.4180    0.7409 C   0  0  0  0  0  0  0  0  0  0  0  0
    2.1041   -3.0581    0.3786 C   0  0  0  0  0  0  0  0  0  0  0  0
    3.2314   -2.3257    0.0109 C   0  0  0  0  0  0  0  0  0  0  0  0
    3.1418   -0.9258    0.0227 C   0  0  0  0  0  0  0  0  0  0  0  0
    4.0866    0.0319   -0.2988 N   0  0  0  0  0  0  0  0  0  0  0  0
    5.3549   -0.2656   -0.9758 C   0  0  0  0  0  0  0  0  0  0  0  0
    6.5102   -0.6789   -0.0898 C   0  0  0  0  0  0  0  0  0  0  0  0
    6.4001   -0.8844    1.2921 C   0  0  0  0  0  0  0  0  0  0  0  0
    7.4951   -1.3293    2.0390 C   0  0  0  0  0  0  0  0  0  0  0  0
    8.7175   -1.5762    1.4194 C   0  0  0  0  0  0  0  0  0  0  0  0
    8.8503   -1.3688    0.0501 C   0  0  0  0  0  0  0  0  0  0  0  0
    7.7563   -0.9254   -0.6986 C   0  0  0  0  0  0  0  0  0  0  0  0
    1.3460    2.2455    0.4604 C   0  0  0  0  0  0  0  0  0  0  0  0
    0.1108    2.3171   -0.0691 C   0  0  0  0  0  0  0  0  0  0  0  0
   -0.6528    3.5972   -0.1654 C   0  0  0  0  0  0  0  0  0  0  0  0
   -1.4991    3.7200   -1.1492 N   0  0  0  0  0  0  0  0  0  0  0  0
   -2.0738    4.9812   -1.3514 C   0  0  0  0  0  0  0  0  0  0  0  0
   -1.5077    6.1255   -0.7957 C   0  0  0  0  0  0  0  0  0  0  0  0
   -2.0225    7.3995   -1.0401 C   0  0  0  0  0  0  0  0  0  0  0  0
   -3.1516    7.5199   -1.8435 C   0  0  0  0  0  0  0  0  0  0  0  0
   -3.7387    6.3852   -2.4079 C   0  0  0  0  0  0  0  0  0  0  0  0
   -3.1898    5.1194   -2.1726 C   0  0  0  0  0  0  0  0  0  0  0  0
   -3.9713    9.3902   -2.1924 I   0  0  0  0  0  0  0  0  0  0  0  0
   -0.3895    5.9148    0.1401 C   0  0  0  0  0  0  0  0  0  0  0  0
    0.4032    6.8243    0.3519 O   0  0  0  0  0  0  0  0  0  0  0  0
   -0.3470    4.6358    0.6921 N   0  0  0  0  0  0  0  0  0  0  0  0
   -0.4971    4.5262    2.1279 C   0  0  0  0  0  0  0  0  0  0  0  0
   -1.1601    3.4336    2.7117 C   0  0  0  0  0  0  0  0  0  0  0  0
   -1.5439    3.4583    4.0651 C   0  0  0  0  0  0  0  0  0  0  0  0
   -1.2787    4.5677    4.8669 C   0  0  0  0  0  0  0  0  0  0  0  0
   -0.5260    5.6074    4.3311 C   0  0  0  0  0  0  0  0  0  0  0  0
   -0.1440    5.5890    2.9796 C   0  0  0  0  0  0  0  0  0  0  0  0
   -1.7851    4.5411    6.1404 O   0  0  0  0  0  0  0  0  0  0  0  0
   -2.1353    5.8262    6.6656 C   0  0  0  0  0  0  0  0  0  0  0  0
    4.0609    3.3121    0.4733 H   0  0  0  0  0  0  0  0  0  0  0  0
    4.3157    2.8960   -1.2341 H   0  0  0  0  0  0  0  0  0  0  0  0
    5.4519    2.3415    0.0207 H   0  0  0  0  0  0  0  0  0  0  0  0
   -0.0869   -0.5353    1.0272 H   0  0  0  0  0  0  0  0  0  0  0  0
    0.0615   -3.0082    1.0380 H   0  0  0  0  0  0  0  0  0  0  0  0
    2.1573   -4.1434    0.3807 H   0  0  0  0  0  0  0  0  0  0  0  0
    4.1542   -2.8296   -0.2585 H   0  0  0  0  0  0  0  0  0  0  0  0
    5.6160    0.6103   -1.5815 H   0  0  0  0  0  0  0  0  0  0  0  0
    5.1449   -1.0822   -1.6757 H   0  0  0  0  0  0  0  0  0  0  0  0
    5.4616   -0.7078    1.8136 H   0  0  0  0  0  0  0  0  0  0  0  0
    7.3894   -1.4823    3.1099 H   0  0  0  0  0  0  0  0  0  0  0  0
    9.5643   -1.9265    2.0047 H   0  0  0  0  0  0  0  0  0  0  0  0
    9.8064   -1.5510   -0.4343 H   0  0  0  0  0  0  0  0  0  0  0  0
    7.8846   -0.7775   -1.7698 H   0  0  0  0  0  0  0  0  0  0  0  0
    1.7630    3.1238    0.9469 H   0  0  0  0  0  0  0  0  0  0  0  0
   -0.2923    1.5097   -0.6756 H   0  0  0  0  0  0  0  0  0  0  0  0
   -1.5560    8.2625   -0.5746 H   0  0  0  0  0  0  0  0  0  0  0  0
   -4.6222    6.4697   -3.0346 H   0  0  0  0  0  0  0  0  0  0  0  0
   -3.6317    4.2378   -2.6293 H   0  0  0  0  0  0  0  0  0  0  0  0
   -1.4766    2.5740    2.1243 H   0  0  0  0  0  0  0  0  0  0  0  0
   -2.1073    2.6243    4.4762 H   0  0  0  0  0  0  0  0  0  0  0  0
   -0.2352    6.4662    4.9287 H   0  0  0  0  0  0  0  0  0  0  0  0
    0.4148    6.4507    2.6165 H   0  0  0  0  0  0  0  0  0  0  0  0
   -2.5912    5.6774    7.6517 H   0  0  0  0  0  0  0  0  0  0  0  0
   -2.8688    6.3316    6.0205 H   0  0  0  0  0  0  0  0  0  0  0  0
   -1.2451    6.4492    6.8091 H   0  0  0  0  0  0  0  0  0  0  0  0
  1  2  1  0  0  0  0
  1 40  1  0  0  0  0
  1 41  1  0  0  0  0
  1 42  1  0  0  0  0
  2  3  2  0  0  0  0
  2 10  1  0  0  0  0
  3  4  1  0  0  0  0
  3 18  1  0  0  0  0
  4  5  2  0  0  0  0
  4  9  1  0  0  0  0
  5  6  1  0  0  0  0
  5 43  1  0  0  0  0
  6  7  2  0  0  0  0
  6 44  1  0  0  0  0
  7  8  1  0  0  0  0
  7 45  1  0  0  0  0
  8  9  2  0  0  0  0
  8 46  1  0  0  0  0
  9 10  1  0  0  0  0
 10 11  1  0  0  0  0
 11 12  1  0  0  0  0
 11 47  1  0  0  0  0
 11 48  1  0  0  0  0
 12 13  2  0  0  0  0
 12 17  1  0  0  0  0
 13 14  1  0  0  0  0
 13 49  1  0  0  0  0
 14 15  2  0  0  0  0
 14 50  1  0  0  0  0
 15 16  1  0  0  0  0
 15 51  1  0  0  0  0
 16 17  2  0  0  0  0
 16 52  1  0  0  0  0
 17 53  1  0  0  0  0
 18 19  2  0  0  0  0
 18 54  1  0  0  0  0
 19 20  1  0  0  0  0
 19 55  1  0  0  0  0
 20 21  2  0  0  0  0
 20 31  1  0  0  0  0
 21 22  1  0  0  0  0
 22 23  2  0  0  0  0
 22 27  1  0  0  0  0
 23 24  1  0  0  0  0
 23 29  1  0  0  0  0
 24 25  2  0  0  0  0
 24 56  1  0  0  0  0
 25 26  1  0  0  0  0
 25 28  1  0  0  0  0
 26 27  2  0  0  0  0
 26 57  1  0  0  0  0
 27 58  1  0  0  0  0
 29 30  2  0  0  0  0
 29 31  1  0  0  0  0
 31 32  1  0  0  0  0
 32 33  2  0  0  0  0
 32 37  1  0  0  0  0
 33 34  1  0  0  0  0
 33 59  1  0  0  0  0
 34 35  2  0  0  0  0
 34 60  1  0  0  0  0
 35 36  1  0  0  0  0
 35 38  1  0  0  0  0
 36 37  2  0  0  0  0
 36 61  1  0  0  0  0
 37 62  1  0  0  0  0
 38 39  1  0  0  0  0
 39 63  1  0  0  0  0
 39 64  1  0  0  0  0
 39 65  1  0  0  0  0
M  END
