
 OpenBabel10072620033D

 33 33  0  0  0  0  0  0  0  0999 V2000
    0.2513    2.2706   -1.0157 C   0  0  0  0  0  0  0  0  0  0  0  0
   -0.5732    1.0316   -0.8129 C   0  0  0  0  0  0  0  0  0  0  0  0
    0.0074   -0.2226   -0.5928 C   0  0  0  0  0  0  0  0  0  0  0  0
   -0.7923   -1.3582   -0.4104 C   0  0  0  0  0  0  0  0  0  0  0  0
   -2.1918   -1.2767   -0.4104 C   0  0  0  0  0  0  0  0  0  0  0  0
   -2.7629   -0.0301   -0.6796 C   0  0  0  0  0  0  0  0  0  0  0  0
   -1.9696    1.1101   -0.8659 C   0  0  0  0  0  0  0  0  0  0  0  0
   -2.9270   -2.4635   -0.2886 N   0  0  0  0  0  0  0  0  0  0  0  0
   -4.3606   -2.3940    0.0505 C   0  0  0  0  0  0  0  0  0  0  0  0
   -4.9930   -3.7888    0.0750 C   0  0  0  0  0  0  0  0  0  0  0  0
   -6.0701   -4.0280    0.6222 O   0  0  0  0  0  0  0  0  0  0  0  0
   -4.2702   -4.7486   -0.6047 N   0  0  0  0  0  0  0  0  0  0  0  0
   -4.8234   -6.0232   -0.7580 N   0  0  0  0  0  0  0  0  0  0  0  0
   -4.3233   -6.9252   -1.6835 C   0  0  0  0  0  0  0  0  0  0  0  0
   -2.9728   -6.6387   -2.6314 S   0  0  0  0  0  0  0  0  0  0  0  0
   -5.0775   -8.0826   -1.7029 N   0  0  0  0  0  0  0  0  0  0  0  0
   -4.7954   -9.2629   -2.4970 C   0  0  0  0  0  0  0  0  0  0  0  0
    1.7237   -0.4249   -0.5428 Cl  0  0  0  0  0  0  0  0  0  0  0  0
    0.9088    2.4389   -0.1570 H   0  0  0  0  0  0  0  0  0  0  0  0
   -0.3787    3.1605   -1.1184 H   0  0  0  0  0  0  0  0  0  0  0  0
    0.8534    2.1861   -1.9258 H   0  0  0  0  0  0  0  0  0  0  0  0
   -0.3096   -2.3225   -0.2688 H   0  0  0  0  0  0  0  0  0  0  0  0
   -3.8388    0.0936   -0.7516 H   0  0  0  0  0  0  0  0  0  0  0  0
   -2.4603    2.0615   -1.0627 H   0  0  0  0  0  0  0  0  0  0  0  0
   -2.4330   -3.1283    0.3093 H   0  0  0  0  0  0  0  0  0  0  0  0
   -4.9182   -1.8176   -0.6949 H   0  0  0  0  0  0  0  0  0  0  0  0
   -4.4864   -1.9481    1.0431 H   0  0  0  0  0  0  0  0  0  0  0  0
   -3.5096   -4.4704   -1.2273 H   0  0  0  0  0  0  0  0  0  0  0  0
   -5.7662   -6.1264   -0.3883 H   0  0  0  0  0  0  0  0  0  0  0  0
   -5.7078   -8.2157   -0.9240 H   0  0  0  0  0  0  0  0  0  0  0  0
   -4.6833   -8.9926   -3.5500 H   0  0  0  0  0  0  0  0  0  0  0  0
   -5.6311   -9.9585   -2.3850 H   0  0  0  0  0  0  0  0  0  0  0  0
   -3.8775   -9.7310   -2.1309 H   0  0  0  0  0  0  0  0  0  0  0  0
  1  2  1  0  0  0  0
  1 19  1  0  0  0  0
  1 20  1  0  0  0  0
  1 21  1  0  0  0  0
  2  3  2  0  0  0  0
  2  7  1  0  0  0  0
  3  4  1  0  0  0  0
  3 18  1  0  0  0  0
  4  5  2  0  0  0  0
  4 22  1  0  0  0  0
  5  6  1  0  0  0  0
  5  8  1  0  0  0  0
  6  7  2  0  0  0  0
  6 23  1  0  0  0  0
  7 24  1  0  0  0  0
  8  9  1  0  0  0  0
  8 25  1  0  0  0  0
  9 10  1  0  0  0  0
  9 26  1  0  0  0  0
  9 27  1  0  0  0  0
 10 11  2  0  0  0  0
 10 12  1  0  0  0  0
 12 13  1  0  0  0  0
 12 28  1  0  0  0  0
 13 14  1  0  0  0  0
 13 29  1  0  0  0  0
 14 15  2  0  0  0  0
 14 16  1  0  0  0  0
 16 17  1  0  0  0  0
 16 30  1  0  0  0  0
 17 31  1  0  0  0  0
 17 32  1  0  0  0  0
 17 33  1  0  0  0  0
M  END
