
 OpenBabel10072620073D

 37 39  0  0  0  0  0  0  0  0999 V2000
    1.5080   -0.4444   -0.5206 C   0  0  0  0  0  0  0  0  0  0  0  0
    0.5531   -1.4607   -0.6142 C   0  0  0  0  0  0  0  0  0  0  0  0
   -0.7499   -1.2188   -0.1702 C   0  0  0  0  0  0  0  0  0  0  0  0
   -1.1049    0.0248    0.3590 C   0  0  0  0  0  0  0  0  0  0  0  0
   -0.1414    1.0297    0.4512 C   0  0  0  0  0  0  0  0  0  0  0  0
    1.1676    0.8042    0.0157 C   0  0  0  0  0  0  0  0  0  0  0  0
    2.0810    1.8655    0.0488 N   0  0  0  0  0  0  0  0  0  0  0  0
    3.1602    1.7007    0.7519 C   0  0  0  0  0  0  0  0  0  0  0  0
    4.2009    2.7487    0.8428 C   0  0  0  0  0  0  0  0  0  0  0  0
    4.0182    3.9568    0.2854 C   0  0  0  0  0  0  0  0  0  0  0  0
    4.9650    4.9320    0.3690 N   0  0  0  0  0  0  0  0  0  0  0  0
    6.1518    4.7748    1.0184 C   0  0  0  0  0  0  0  0  0  0  0  0
    7.2747    5.9949    1.1051 S   0  0  0  0  0  0  0  0  0  0  0  0
    6.3673    3.5517    1.5885 N   0  0  0  0  0  0  0  0  0  0  0  0
    5.4851    2.5005    1.5417 C   0  0  0  0  0  0  0  0  0  0  0  0
    5.7472    1.4102    2.0367 O   0  0  0  0  0  0  0  0  0  0  0  0
    2.9071    4.3544   -0.4135 O   0  0  0  0  0  0  0  0  0  0  0  0
   -2.0028   -2.4680   -0.3409 S   0  0  0  0  0  0  0  0  0  0  0  0
   -3.2446   -1.7816   -0.6360 O   0  0  0  0  0  0  0  0  0  0  0  0
   -1.5052   -3.4955   -1.2268 O   0  0  0  0  0  0  0  0  0  0  0  0
   -2.1387   -3.0101    1.2356 N   0  0  0  0  0  0  0  0  0  0  0  0
   -1.7112   -4.3218    1.5178 C   0  0  0  0  0  0  0  0  0  0  0  0
   -2.4987   -5.0522    2.2709 N   0  0  0  0  0  0  0  0  0  0  0  0
   -1.9197   -6.2915    2.4633 C   0  0  0  0  0  0  0  0  0  0  0  0
   -0.6739   -6.4613    1.9002 C   0  0  0  0  0  0  0  0  0  0  0  0
   -0.1980   -5.0124    1.1232 S   0  0  0  0  0  0  0  0  0  0  0  0
    2.5163   -0.6253   -0.8861 H   0  0  0  0  0  0  0  0  0  0  0  0
    0.8299   -2.4216   -1.0433 H   0  0  0  0  0  0  0  0  0  0  0  0
   -2.1233    0.2230    0.6862 H   0  0  0  0  0  0  0  0  0  0  0  0
   -0.4149    2.0023    0.8520 H   0  0  0  0  0  0  0  0  0  0  0  0
    3.3576    0.7751    1.3253 H   0  0  0  0  0  0  0  0  0  0  0  0
    4.7624    5.8197   -0.0785 H   0  0  0  0  0  0  0  0  0  0  0  0
    7.2470    3.3900    2.0582 H   0  0  0  0  0  0  0  0  0  0  0  0
    2.2950    3.5834   -0.4623 H   0  0  0  0  0  0  0  0  0  0  0  0
   -3.0716   -2.8497    1.6110 H   0  0  0  0  0  0  0  0  0  0  0  0
   -2.4508   -7.0414    3.0355 H   0  0  0  0  0  0  0  0  0  0  0  0
   -0.0327   -7.3293    1.9196 H   0  0  0  0  0  0  0  0  0  0  0  0
  1  2  2  0  0  0  0
  1  6  1  0  0  0  0
  1 27  1  0  0  0  0
  2  3  1  0  0  0  0
  2 28  1  0  0  0  0
  3  4  2  0  0  0  0
  3 18  1  0  0  0  0
  4  5  1  0  0  0  0
  4 29  1  0  0  0  0
  5  6  2  0  0  0  0
  5 30  1  0  0  0  0
  6  7  1  0  0  0  0
  7  8  2  3  0  0  0
  8  9  1  0  0  0  0
  8 31  1  0  0  0  0
  9 10  2  0  0  0  0
  9 15  1  0  0  0  0
 10 11  1  0  0  0  0
 10 17  1  0  0  0  0
 11 12  1  0  0  0  0
 11 32  1  0  0  0  0
 12 13  2  0  0  0  0
 12 14  1  0  0  0  0
 14 15  1  0  0  0  0
 14 33  1  0  0  0  0
 15 16  2  0  0  0  0
 17 34  1  0  0  0  0
 18 19  2  0  0  0  0
 18 20  2  0  0  0  0
 18 21  1  0  0  0  0
 21 22  1  0  0  0  0
 21 35  1  0  0  0  0
 22 23  2  0  0  0  0
 22 26  1  0  0  0  0
 23 24  1  0  0  0  0
 24 25  2  0  0  0  0
 24 36  1  0  0  0  0
 25 26  1  0  0  0  0
 25 37  1  0  0  0  0
M  END
