
 OpenBabel10072616443D

 88 90  0  0  1  0  0  0  0  0999 V2000
    4.3633    2.0852    2.6190 C   0  0  0  0  0  0  0  0  0  0  0  0
    4.0210    0.8656    1.7438 C   0  0  0  0  0  0  0  0  0  0  0  0
    2.5759    0.9352    1.1552 C   0  0  3  0  0  0  0  0  0  0  0  0
    2.4616    2.2194    0.2650 C   0  0  0  0  0  0  0  0  0  0  0  0
    3.4403    2.6175   -0.3737 O   0  0  0  0  0  0  0  0  0  0  0  0
    1.2805    2.9695    0.3124 N   0  0  0  0  0  0  0  0  0  0  0  0
   -0.0338    2.4088    0.6031 C   0  0  0  0  0  0  0  0  0  0  0  0
   -0.8774    2.1101   -0.6457 C   0  0  0  0  0  0  0  0  0  0  0  0
   -0.1736    1.1967   -1.4824 O   0  0  0  0  0  0  0  0  0  0  0  0
   -0.9679    0.6619   -2.5476 C   0  0  0  0  0  0  0  0  0  0  0  0
   -0.2910    0.9055   -3.9065 C   0  0  0  0  0  0  0  0  0  0  0  0
   -0.5357    2.2766   -4.3999 N   0  0  0  0  0  0  0  0  0  0  0  0
    0.6245    3.1642   -4.5376 C   0  0  0  0  0  0  0  0  0  0  0  0
    1.4873    3.3786   -3.2926 C   0  0  0  0  0  0  0  0  0  0  0  0
    0.8368    4.3168   -2.4264 O   0  0  0  0  0  0  0  0  0  0  0  0
    1.7293    4.7975   -1.4194 C   0  0  0  0  0  0  0  0  0  0  0  0
    1.2935    4.3948   -0.0137 C   0  0  0  0  0  0  0  0  0  0  0  0
   -1.7133    2.4769   -5.1307 C   0  0  0  0  0  0  0  0  0  0  0  0
   -2.3748    1.5448   -5.5850 O   0  0  0  0  0  0  0  0  0  0  0  0
   -2.2284    3.9264   -5.3008 C   0  0  3  0  0  0  0  0  0  0  0  0
   -1.7123    4.5371   -6.6147 C   0  0  0  0  0  0  0  0  0  0  0  0
   -1.9545    6.0398   -6.6889 C   0  0  0  0  0  0  0  0  0  0  0  0
   -3.7201    3.8797   -5.3889 N   0  0  0  0  0  0  0  0  0  0  0  0
   -4.5829    3.3585   -4.0371 S   0  0  0  0  0  0  0  0  0  0  0  0
   -5.7901    2.7419   -4.5451 O   0  0  0  0  0  0  0  0  0  0  0  0
   -3.7098    2.6801   -3.1074 O   0  0  0  0  0  0  0  0  0  0  0  0
   -5.0576    4.8855   -3.2743 C   0  0  0  0  0  0  0  0  0  0  0  0
   -6.2322    5.5224   -3.6739 C   0  0  0  0  0  0  0  0  0  0  0  0
   -6.6838    6.6308   -2.9569 C   0  0  0  0  0  0  0  0  0  0  0  0
   -5.9750    7.0919   -1.8370 C   0  0  0  0  0  0  0  0  0  0  0  0
   -4.7846    6.4544   -1.4628 C   0  0  0  0  0  0  0  0  0  0  0  0
   -4.3265    5.3498   -2.1770 C   0  0  0  0  0  0  0  0  0  0  0  0
   -6.4777    8.2538   -1.0318 C   0  0  0  0  0  0  0  0  0  0  0  0
    2.3547   -0.2981    0.3312 N   0  0  0  0  0  0  0  0  0  0  0  0
    1.1579   -1.4557    0.6669 S   0  0  0  0  0  0  0  0  0  0  0  0
    0.3992   -1.6475   -0.5523 O   0  0  0  0  0  0  0  0  0  0  0  0
    1.8705   -2.5692    1.2594 O   0  0  0  0  0  0  0  0  0  0  0  0
    0.0388   -0.8667    1.9221 C   0  0  0  0  0  0  0  0  0  0  0  0
    0.4668   -0.7042    3.2447 C   0  0  0  0  0  0  0  0  0  0  0  0
   -0.3902   -0.1502    4.2007 C   0  0  0  0  0  0  0  0  0  0  0  0
   -1.6977    0.1973    3.8512 C   0  0  0  0  0  0  0  0  0  0  0  0
   -2.1512   -0.0637    2.5506 C   0  0  0  0  0  0  0  0  0  0  0  0
   -1.2940   -0.6065    1.5893 C   0  0  0  0  0  0  0  0  0  0  0  0
   -2.6030    0.8661    4.8428 C   0  0  0  0  0  0  0  0  0  0  0  0
    5.3979    2.0268    2.9915 H   0  0  0  0  0  0  0  0  0  0  0  0
    3.6839    2.1206    3.4790 H   0  0  0  0  0  0  0  0  0  0  0  0
    4.2653    3.0353    2.0699 H   0  0  0  0  0  0  0  0  0  0  0  0
    4.1532   -0.0620    2.3299 H   0  0  0  0  0  0  0  0  0  0  0  0
    4.7438    0.8154    0.9175 H   0  0  0  0  0  0  0  0  0  0  0  0
    1.8905    1.0475    1.9951 H   0  0  0  0  0  0  0  0  0  0  0  0
   -0.5742    3.0907    1.2712 H   0  0  0  0  0  0  0  0  0  0  0  0
    0.1176    1.4991    1.1602 H   0  0  0  0  0  0  0  0  0  0  0  0
   -1.0964    3.0272   -1.2021 H   0  0  0  0  0  0  0  0  0  0  0  0
   -1.8233    1.6670   -0.3149 H   0  0  0  0  0  0  0  0  0  0  0  0
   -1.9796    1.0652   -2.5351 H   0  0  0  0  0  0  0  0  0  0  0  0
   -1.0449   -0.4131   -2.3600 H   0  0  0  0  0  0  0  0  0  0  0  0
   -0.6852    0.1958   -4.6454 H   0  0  0  0  0  0  0  0  0  0  0  0
    0.7866    0.7321   -3.8200 H   0  0  0  0  0  0  0  0  0  0  0  0
    0.3011    4.1468   -4.8840 H   0  0  0  0  0  0  0  0  0  0  0  0
    1.2413    2.7290   -5.3346 H   0  0  0  0  0  0  0  0  0  0  0  0
    2.4329    3.8182   -3.6367 H   0  0  0  0  0  0  0  0  0  0  0  0
    1.7061    2.4510   -2.7564 H   0  0  0  0  0  0  0  0  0  0  0  0
    1.6772    5.8901   -1.4655 H   0  0  0  0  0  0  0  0  0  0  0  0
    2.7695    4.5382   -1.6258 H   0  0  0  0  0  0  0  0  0  0  0  0
    0.2853    4.8029    0.1542 H   0  0  0  0  0  0  0  0  0  0  0  0
    1.9679    4.8498    0.7222 H   0  0  0  0  0  0  0  0  0  0  0  0
   -1.9368    4.5355   -4.4388 H   0  0  0  0  0  0  0  0  0  0  0  0
   -2.2000    4.0586   -7.4734 H   0  0  0  0  0  0  0  0  0  0  0  0
   -0.6425    4.3512   -6.7493 H   0  0  0  0  0  0  0  0  0  0  0  0
   -3.0239    6.2728   -6.6791 H   0  0  0  0  0  0  0  0  0  0  0  0
   -1.5324    6.4429   -7.6155 H   0  0  0  0  0  0  0  0  0  0  0  0
   -1.4803    6.5594   -5.8499 H   0  0  0  0  0  0  0  0  0  0  0  0
   -4.0473    3.3259   -6.1873 H   0  0  0  0  0  0  0  0  0  0  0  0
   -6.8082    5.1439   -4.5157 H   0  0  0  0  0  0  0  0  0  0  0  0
   -7.6077    7.1160   -3.2639 H   0  0  0  0  0  0  0  0  0  0  0  0
   -4.2224    6.7990   -0.5975 H   0  0  0  0  0  0  0  0  0  0  0  0
   -3.4236    4.8368   -1.8549 H   0  0  0  0  0  0  0  0  0  0  0  0
   -7.4694    8.5731   -1.3673 H   0  0  0  0  0  0  0  0  0  0  0  0
   -5.7925    9.1016   -1.1255 H   0  0  0  0  0  0  0  0  0  0  0  0
   -6.5614    7.9735    0.0239 H   0  0  0  0  0  0  0  0  0  0  0  0
    3.2282   -0.8219    0.1845 H   0  0  0  0  0  0  0  0  0  0  0  0
    1.4758   -0.9741    3.5356 H   0  0  0  0  0  0  0  0  0  0  0  0
   -0.0308    0.0169    5.2154 H   0  0  0  0  0  0  0  0  0  0  0  0
   -3.1757    0.1722    2.2724 H   0  0  0  0  0  0  0  0  0  0  0  0
   -1.6604   -0.7767    0.5776 H   0  0  0  0  0  0  0  0  0  0  0  0
   -2.1201    0.9844    5.8178 H   0  0  0  0  0  0  0  0  0  0  0  0
   -3.5256    0.2952    4.9859 H   0  0  0  0  0  0  0  0  0  0  0  0
   -2.8502    1.8702    4.4876 H   0  0  0  0  0  0  0  0  0  0  0  0
  1  2  1  0  0  0  0
  1 45  1  0  0  0  0
  1 46  1  0  0  0  0
  1 47  1  0  0  0  0
  2  3  1  0  0  0  0
  2 48  1  0  0  0  0
  2 49  1  0  0  0  0
  3  4  1  0  0  0  0
  3 34  1  0  0  0  0
  3 50  1  0  0  0  0
  4  5  2  0  0  0  0
  4  6  1  0  0  0  0
  6  7  1  0  0  0  0
  6 17  1  0  0  0  0
  7  8  1  0  0  0  0
  7 51  1  0  0  0  0
  7 52  1  0  0  0  0
  8  9  1  0  0  0  0
  8 53  1  0  0  0  0
  8 54  1  0  0  0  0
  9 10  1  0  0  0  0
 10 11  1  0  0  0  0
 10 55  1  0  0  0  0
 10 56  1  0  0  0  0
 11 12  1  0  0  0  0
 11 57  1  0  0  0  0
 11 58  1  0  0  0  0
 12 13  1  0  0  0  0
 12 18  1  0  0  0  0
 13 14  1  0  0  0  0
 13 59  1  0  0  0  0
 13 60  1  0  0  0  0
 14 15  1  0  0  0  0
 14 61  1  0  0  0  0
 14 62  1  0  0  0  0
 15 16  1  0  0  0  0
 16 17  1  0  0  0  0
 16 63  1  0  0  0  0
 16 64  1  0  0  0  0
 17 65  1  0  0  0  0
 17 66  1  0  0  0  0
 18 19  2  0  0  0  0
 18 20  1  0  0  0  0
 20 21  1  0  0  0  0
 20 23  1  0  0  0  0
 20 67  1  0  0  0  0
 21 22  1  0  0  0  0
 21 68  1  0  0  0  0
 21 69  1  0  0  0  0
 22 70  1  0  0  0  0
 22 71  1  0  0  0  0
 22 72  1  0  0  0  0
 23 24  1  0  0  0  0
 23 73  1  0  0  0  0
 24 25  2  0  0  0  0
 24 26  2  0  0  0  0
 24 27  1  0  0  0  0
 27 28  2  0  0  0  0
 27 32  1  0  0  0  0
 28 29  1  0  0  0  0
 28 74  1  0  0  0  0
 29 30  2  0  0  0  0
 29 75  1  0  0  0  0
 30 31  1  0  0  0  0
 30 33  1  0  0  0  0
 31 32  2  0  0  0  0
 31 76  1  0  0  0  0
 32 77  1  0  0  0  0
 33 78  1  0  0  0  0
 33 79  1  0  0  0  0
 33 80  1  0  0  0  0
 34 35  1  0  0  0  0
 34 81  1  0  0  0  0
 35 36  2  0  0  0  0
 35 37  2  0  0  0  0
 35 38  1  0  0  0  0
 38 39  2  0  0  0  0
 38 43  1  0  0  0  0
 39 40  1  0  0  0  0
 39 82  1  0  0  0  0
 40 41  2  0  0  0  0
 40 83  1  0  0  0  0
 41 42  1  0  0  0  0
 41 44  1  0  0  0  0
 42 43  2  0  0  0  0
 42 84  1  0  0  0  0
 43 85  1  0  0  0  0
 44 86  1  0  0  0  0
 44 87  1  0  0  0  0
 44 88  1  0  0  0  0
M  END
