
 OpenBabel10072619523D

 38 39  0  0  0  0  0  0  0  0999 V2000
    2.1006   -0.1945    1.1922 C   0  0  0  0  0  0  0  0  0  0  0  0
    2.4807    0.2942   -0.1364 N   0  0  0  0  0  0  0  0  0  0  0  0
    3.1103    1.6208   -0.1267 C   0  0  0  0  0  0  0  0  0  0  0  0
    3.1863   -0.6205   -0.9392 C   0  0  0  0  0  0  0  0  0  0  0  0
    2.8800   -0.8036   -2.2988 C   0  0  0  0  0  0  0  0  0  0  0  0
    3.5754   -1.6941   -3.1334 C   0  0  0  0  0  0  0  0  0  0  0  0
    4.6272   -2.4436   -2.6047 C   0  0  0  0  0  0  0  0  0  0  0  0
    4.9674   -2.2704   -1.2581 C   0  0  0  0  0  0  0  0  0  0  0  0
    4.2542   -1.3804   -0.4391 C   0  0  0  0  0  0  0  0  0  0  0  0
    5.4223   -3.3624   -3.4295 C   0  0  0  0  0  0  0  0  0  0  0  0
    4.8730   -4.2934   -4.2285 C   0  0  0  0  0  0  0  0  0  0  0  0
    5.6149   -5.2295   -5.0700 C   0  0  0  0  0  0  0  0  0  0  0  0
    5.1801   -6.4378   -5.4698 C   0  0  0  0  0  0  0  0  0  0  0  0
    5.9880   -7.3002   -6.3390 C   0  0  0  0  0  0  0  0  0  0  0  0
    5.6249   -8.3993   -6.7400 O   0  0  0  0  0  0  0  0  0  0  0  0
    7.2069   -6.7765   -6.6966 N   0  0  0  0  0  0  0  0  0  0  0  0
    7.6645   -5.5359   -6.3541 C   0  0  0  0  0  0  0  0  0  0  0  0
    8.7329   -5.0951   -6.7588 O   0  0  0  0  0  0  0  0  0  0  0  0
    6.8455   -4.8045   -5.5358 N   0  0  0  0  0  0  0  0  0  0  0  0
    3.9263   -6.9416   -5.0200 N   0  3  0  0  0  0  0  0  0  0  0  0
    2.9248   -6.6140   -5.6693 O   0  0  0  0  0  0  0  0  0  0  0  0
    3.9337   -7.6168   -3.9833 O   0  5  0  0  0  0  0  0  0  0  0  0
    1.7915   -0.0616   -2.8956 N   0  3  0  0  0  0  0  0  0  0  0  0
    0.6728   -0.5941   -2.8866 O   0  0  0  0  0  0  0  0  0  0  0  0
    2.0825    1.0058   -3.4564 O   0  5  0  0  0  0  0  0  0  0  0  0
    1.3494    0.4738    1.6274 H   0  0  0  0  0  0  0  0  0  0  0  0
    2.9541   -0.2273    1.8785 H   0  0  0  0  0  0  0  0  0  0  0  0
    1.6486   -1.1910    1.1307 H   0  0  0  0  0  0  0  0  0  0  0  0
    2.4691    2.3316    0.4056 H   0  0  0  0  0  0  0  0  0  0  0  0
    3.2498    2.0102   -1.1408 H   0  0  0  0  0  0  0  0  0  0  0  0
    4.0837    1.5963    0.3764 H   0  0  0  0  0  0  0  0  0  0  0  0
    3.2946   -1.7835   -4.1806 H   0  0  0  0  0  0  0  0  0  0  0  0
    5.7910   -2.8342   -0.8226 H   0  0  0  0  0  0  0  0  0  0  0  0
    4.5614   -1.2822    0.5992 H   0  0  0  0  0  0  0  0  0  0  0  0
    6.4989   -3.2674   -3.3120 H   0  0  0  0  0  0  0  0  0  0  0  0
    3.7854   -4.3853   -4.2410 H   0  0  0  0  0  0  0  0  0  0  0  0
    7.7891   -7.3280   -7.3107 H   0  0  0  0  0  0  0  0  0  0  0  0
    7.1902   -3.8768   -5.3139 H   0  0  0  0  0  0  0  0  0  0  0  0
  1  2  1  0  0  0  0
  1 26  1  0  0  0  0
  1 27  1  0  0  0  0
  1 28  1  0  0  0  0
  2  3  1  0  0  0  0
  2  4  1  0  0  0  0
  3 29  1  0  0  0  0
  3 30  1  0  0  0  0
  3 31  1  0  0  0  0
  4  5  2  0  0  0  0
  4  9  1  0  0  0  0
  5  6  1  0  0  0  0
  5 23  1  0  0  0  0
  6  7  2  0  0  0  0
  6 32  1  0  0  0  0
  7  8  1  0  0  0  0
  7 10  1  0  0  0  0
  8  9  2  0  0  0  0
  8 33  1  0  0  0  0
  9 34  1  0  0  0  0
 10 11  2  0  0  0  0
 10 35  1  0  0  0  0
 11 12  1  0  0  0  0
 11 36  1  0  0  0  0
 12 13  2  0  0  0  0
 12 19  1  0  0  0  0
 13 14  1  0  0  0  0
 13 20  1  0  0  0  0
 14 15  2  0  0  0  0
 14 16  1  0  0  0  0
 16 17  1  0  0  0  0
 16 37  1  0  0  0  0
 17 18  2  0  0  0  0
 17 19  1  0  0  0  0
 19 38  1  0  0  0  0
 20 21  2  0  0  0  0
 20 22  1  0  0  0  0
 23 24  2  0  0  0  0
 23 25  1  0  0  0  0
M  CHG  4  20   1  22  -1  23   1  25  -1
M  END
