
 OpenBabel10072616413D

 45 44  0  0  0  0  0  0  0  0999 V2000
    4.4090   -5.5278    2.0643 C   0  0  0  0  0  0  0  0  0  0  0  0
    4.5133   -5.1979    0.6050 C   0  0  0  0  0  0  0  0  0  0  0  0
    4.4547   -6.1404   -0.3509 C   0  0  0  0  0  0  0  0  0  0  0  0
    4.6877   -3.7493    0.2965 C   0  0  0  0  0  0  0  0  0  0  0  0
    4.7183   -2.8777    1.1525 O   0  0  0  0  0  0  0  0  0  0  0  0
    4.7984   -3.5291   -1.0376 O   0  0  0  0  0  0  0  0  0  0  0  0
    5.0305   -2.1564   -1.4237 C   0  0  0  0  0  0  0  0  0  0  0  0
    6.5254   -1.8353   -1.4333 C   0  0  0  0  0  0  0  0  0  0  0  0
    6.8607   -0.4506   -1.9777 C   0  0  0  0  0  0  0  0  0  0  0  0
    6.2998    0.7359   -1.2084 C   0  0  0  0  0  0  0  0  0  0  0  0
    6.7006    0.8950    0.2507 C   0  0  0  0  0  0  0  0  0  0  0  0
    8.1851    1.0050    0.5740 C   0  0  0  0  0  0  0  0  0  0  0  0
    8.9588    2.1686   -0.0341 C   0  0  0  0  0  0  0  0  0  0  0  0
    8.5208    3.5790    0.3355 C   0  0  0  0  0  0  0  0  0  0  0  0
    8.5485    3.9677    1.8070 C   0  0  0  0  0  0  0  0  0  0  0  0
    9.8663    3.8625    2.5561 C   0  0  0  0  0  0  0  0  0  0  0  0
   10.9488    4.7718    2.0047 C   0  0  0  0  0  0  0  0  0  0  0  0
   12.0791    4.6682    2.7545 F   0  0  0  0  0  0  0  0  0  0  0  0
   11.3030    4.4029    0.7511 F   0  0  0  0  0  0  0  0  0  0  0  0
    9.6446    4.2090    3.8632 F   0  0  0  0  0  0  0  0  0  0  0  0
   10.2876    2.5723    2.5900 F   0  0  0  0  0  0  0  0  0  0  0  0
    8.1129    5.2662    1.9092 F   0  0  0  0  0  0  0  0  0  0  0  0
    7.6016    3.2330    2.4625 F   0  0  0  0  0  0  0  0  0  0  0  0
    9.2780    4.4795   -0.3618 F   0  0  0  0  0  0  0  0  0  0  0  0
    7.2558    3.7765   -0.1459 F   0  0  0  0  0  0  0  0  0  0  0  0
   10.2794    2.0331    0.2881 F   0  0  0  0  0  0  0  0  0  0  0  0
    8.9277    2.0430   -1.3941 F   0  0  0  0  0  0  0  0  0  0  0  0
    8.3359    1.0543    1.9308 F   0  0  0  0  0  0  0  0  0  0  0  0
    8.7933   -0.1611    0.2055 F   0  0  0  0  0  0  0  0  0  0  0  0
    6.0655    1.9935    0.7596 F   0  0  0  0  0  0  0  0  0  0  0  0
    6.1686   -0.1490    0.9505 F   0  0  0  0  0  0  0  0  0  0  0  0
    6.6245    1.8868   -1.8711 F   0  0  0  0  0  0  0  0  0  0  0  0
    4.9314    0.6808   -1.2777 F   0  0  0  0  0  0  0  0  0  0  0  0
    8.2130   -0.3106   -2.0793 F   0  0  0  0  0  0  0  0  0  0  0  0
    6.4002   -0.3774   -3.2681 F   0  0  0  0  0  0  0  0  0  0  0  0
    7.0590   -1.9902   -0.1977 F   0  0  0  0  0  0  0  0  0  0  0  0
    7.1480   -2.7698   -2.2162 F   0  0  0  0  0  0  0  0  0  0  0  0
    4.3194   -6.6062    2.2341 H   0  0  0  0  0  0  0  0  0  0  0  0
    3.5271   -5.0491    2.5028 H   0  0  0  0  0  0  0  0  0  0  0  0
    5.2986   -5.1827    2.6024 H   0  0  0  0  0  0  0  0  0  0  0  0
    4.3235   -7.1887   -0.0975 H   0  0  0  0  0  0  0  0  0  0  0  0
    4.5329   -5.9055   -1.4084 H   0  0  0  0  0  0  0  0  0  0  0  0
    4.4636   -1.4885   -0.7687 H   0  0  0  0  0  0  0  0  0  0  0  0
    4.6223   -2.0555   -2.4349 H   0  0  0  0  0  0  0  0  0  0  0  0
   10.6475    5.8228    1.9987 H   0  0  0  0  0  0  0  0  0  0  0  0
  1  2  1  0  0  0  0
  1 38  1  0  0  0  0
  1 39  1  0  0  0  0
  1 40  1  0  0  0  0
  2  3  2  0  0  0  0
  2  4  1  0  0  0  0
  3 41  1  0  0  0  0
  3 42  1  0  0  0  0
  4  5  2  0  0  0  0
  4  6  1  0  0  0  0
  6  7  1  0  0  0  0
  7  8  1  0  0  0  0
  7 43  1  0  0  0  0
  7 44  1  0  0  0  0
  8  9  1  0  0  0  0
  8 36  1  0  0  0  0
  8 37  1  0  0  0  0
  9 10  1  0  0  0  0
  9 34  1  0  0  0  0
  9 35  1  0  0  0  0
 10 11  1  0  0  0  0
 10 32  1  0  0  0  0
 10 33  1  0  0  0  0
 11 12  1  0  0  0  0
 11 30  1  0  0  0  0
 11 31  1  0  0  0  0
 12 13  1  0  0  0  0
 12 28  1  0  0  0  0
 12 29  1  0  0  0  0
 13 14  1  0  0  0  0
 13 26  1  0  0  0  0
 13 27  1  0  0  0  0
 14 15  1  0  0  0  0
 14 24  1  0  0  0  0
 14 25  1  0  0  0  0
 15 16  1  0  0  0  0
 15 22  1  0  0  0  0
 15 23  1  0  0  0  0
 16 17  1  0  0  0  0
 16 20  1  0  0  0  0
 16 21  1  0  0  0  0
 17 18  1  0  0  0  0
 17 19  1  0  0  0  0
 17 45  1  0  0  0  0
M  END
