
 OpenBabel10072616343D

 56 60  0  0  0  0  0  0  0  0999 V2000
    1.6147   -0.3150   -2.1527 C   0  0  0  0  0  0  0  0  0  0  0  0
    1.1323    1.0989   -2.3281 C   0  0  0  0  0  0  0  0  0  0  0  0
    1.5732    2.1695   -1.6368 C   0  0  0  0  0  0  0  0  0  0  0  0
    2.6093    2.2129   -0.5476 C   0  0  0  0  0  0  0  0  0  0  0  0
    3.6815    3.1576   -0.8546 N   0  0  0  0  0  0  0  0  0  0  0  0
    4.8798    2.8633   -1.4695 C   0  0  0  0  0  0  0  0  0  0  0  0
    5.5560    4.0484   -1.4799 C   0  0  0  0  0  0  0  0  0  0  0  0
    4.7167    4.9892   -0.8634 C   0  0  0  0  0  0  0  0  0  0  0  0
    3.5666    4.4607   -0.4701 N   0  0  0  0  0  0  0  0  0  0  0  0
    5.0589    6.3382   -0.6331 N   0  0  0  0  0  0  0  0  0  0  0  0
    6.2474    6.6695   -1.0617 C   0  0  0  0  0  0  0  0  0  0  0  0
    7.1474    5.7994   -1.7028 N   0  0  0  0  0  0  0  0  0  0  0  0
    6.8693    4.4847   -1.9241 C   0  0  0  0  0  0  0  0  0  0  0  0
    7.8995    3.8829   -2.4580 N   0  0  0  0  0  0  0  0  0  0  0  0
    8.8317    4.9093   -2.5322 C   0  0  0  0  0  0  0  0  0  0  0  0
    8.3960    6.1108   -2.1023 N   0  0  0  0  0  0  0  0  0  0  0  0
   10.2256    4.6863   -3.0213 C   0  0  0  0  0  0  0  0  0  0  0  0
   10.7423    3.4769   -3.4473 C   0  0  0  0  0  0  0  0  0  0  0  0
   12.0903    3.7122   -3.8104 C   0  0  0  0  0  0  0  0  0  0  0  0
   12.3176    5.0483   -3.5837 C   0  0  0  0  0  0  0  0  0  0  0  0
   11.1980    5.6467   -3.1027 O   0  0  0  0  0  0  0  0  0  0  0  0
    6.8078    7.9250   -0.9211 N   0  0  0  0  0  0  0  0  0  0  0  0
    6.3698    9.0187   -0.2026 C   0  0  0  0  0  0  0  0  0  0  0  0
    7.0949   10.0093   -0.1626 O   0  0  0  0  0  0  0  0  0  0  0  0
    5.1689    8.8519    0.4347 N   0  0  0  0  0  0  0  0  0  0  0  0
    4.5415    9.7195    1.3459 C   0  0  0  0  0  0  0  0  0  0  0  0
    5.0986   10.9176    1.7939 C   0  0  0  0  0  0  0  0  0  0  0  0
    4.4257   11.7133    2.7315 C   0  0  0  0  0  0  0  0  0  0  0  0
    3.1841   11.3190    3.2266 C   0  0  0  0  0  0  0  0  0  0  0  0
    2.6233   10.1233    2.7764 C   0  0  0  0  0  0  0  0  0  0  0  0
    3.2952    9.3280    1.8438 C   0  0  0  0  0  0  0  0  0  0  0  0
    2.4295   11.9984    4.1419 O   0  0  0  0  0  0  0  0  0  0  0  0
    2.9488   13.2379    4.6077 C   0  0  0  0  0  0  0  0  0  0  0  0
    0.0551    1.2526   -3.3719 C   0  0  0  0  0  0  0  0  0  0  0  0
    2.4123   -0.4182   -1.4147 H   0  0  0  0  0  0  0  0  0  0  0  0
    2.0001   -0.7006   -3.1024 H   0  0  0  0  0  0  0  0  0  0  0  0
    0.7868   -0.9556   -1.8308 H   0  0  0  0  0  0  0  0  0  0  0  0
    1.1327    3.1448   -1.8544 H   0  0  0  0  0  0  0  0  0  0  0  0
    3.0855    1.2481   -0.3558 H   0  0  0  0  0  0  0  0  0  0  0  0
    2.1469    2.5453    0.3890 H   0  0  0  0  0  0  0  0  0  0  0  0
    5.1212    1.8686   -1.8162 H   0  0  0  0  0  0  0  0  0  0  0  0
   10.2008    2.5415   -3.4882 H   0  0  0  0  0  0  0  0  0  0  0  0
   12.8057    2.9974   -4.1911 H   0  0  0  0  0  0  0  0  0  0  0  0
   13.1757    5.6945   -3.7076 H   0  0  0  0  0  0  0  0  0  0  0  0
    7.7352    8.0646   -1.3161 H   0  0  0  0  0  0  0  0  0  0  0  0
    4.6765    7.9855    0.2236 H   0  0  0  0  0  0  0  0  0  0  0  0
    6.0665   11.2602    1.4419 H   0  0  0  0  0  0  0  0  0  0  0  0
    4.9096   12.6296    3.0533 H   0  0  0  0  0  0  0  0  0  0  0  0
    1.6565    9.8050    3.1588 H   0  0  0  0  0  0  0  0  0  0  0  0
    2.8305    8.4003    1.5187 H   0  0  0  0  0  0  0  0  0  0  0  0
    2.2394   13.6440    5.3353 H   0  0  0  0  0  0  0  0  0  0  0  0
    3.0368   13.9599    3.7889 H   0  0  0  0  0  0  0  0  0  0  0  0
    3.9073   13.1002    5.1196 H   0  0  0  0  0  0  0  0  0  0  0  0
    0.4348    0.9543   -4.3546 H   0  0  0  0  0  0  0  0  0  0  0  0
   -0.3056    2.2835   -3.4509 H   0  0  0  0  0  0  0  0  0  0  0  0
   -0.8036    0.6199   -3.1228 H   0  0  0  0  0  0  0  0  0  0  0  0
  1  2  1  0  0  0  0
  1 35  1  0  0  0  0
  1 36  1  0  0  0  0
  1 37  1  0  0  0  0
  2  3  2  0  0  0  0
  2 34  1  0  0  0  0
  3  4  1  0  0  0  0
  3 38  1  0  0  0  0
  4  5  1  0  0  0  0
  4 39  1  0  0  0  0
  4 40  1  0  0  0  0
  5  6  1  0  0  0  0
  5  9  1  0  0  0  0
  6  7  2  0  0  0  0
  6 41  1  0  0  0  0
  7  8  1  0  0  0  0
  7 13  1  0  0  0  0
  8  9  2  0  0  0  0
  8 10  1  0  0  0  0
 10 11  2  0  0  0  0
 11 12  1  0  0  0  0
 11 22  1  0  0  0  0
 12 13  1  0  0  0  0
 12 16  1  0  0  0  0
 13 14  2  0  0  0  0
 14 15  1  0  0  0  0
 15 16  2  0  0  0  0
 15 17  1  0  0  0  0
 17 18  2  0  0  0  0
 17 21  1  0  0  0  0
 18 19  1  0  0  0  0
 18 42  1  0  0  0  0
 19 20  2  0  0  0  0
 19 43  1  0  0  0  0
 20 21  1  0  0  0  0
 20 44  1  0  0  0  0
 22 23  1  0  0  0  0
 22 45  1  0  0  0  0
 23 24  2  0  0  0  0
 23 25  1  0  0  0  0
 25 26  1  0  0  0  0
 25 46  1  0  0  0  0
 26 27  2  0  0  0  0
 26 31  1  0  0  0  0
 27 28  1  0  0  0  0
 27 47  1  0  0  0  0
 28 29  2  0  0  0  0
 28 48  1  0  0  0  0
 29 30  1  0  0  0  0
 29 32  1  0  0  0  0
 30 31  2  0  0  0  0
 30 49  1  0  0  0  0
 31 50  1  0  0  0  0
 32 33  1  0  0  0  0
 33 51  1  0  0  0  0
 33 52  1  0  0  0  0
 33 53  1  0  0  0  0
 34 54  1  0  0  0  0
 34 55  1  0  0  0  0
 34 56  1  0  0  0  0
M  END
