
 OpenBabel10072620203D

137142  0  0  1  0  0  0  0  0999 V2000
   -7.0010    1.8910    4.3445 C   0  0  0  0  0  0  0  0  0  0  0  0
   -7.5832    2.0630    3.0911 C   0  0  0  0  0  0  0  0  0  0  0  0
   -6.8888    1.6861    1.9483 C   0  0  0  0  0  0  0  0  0  0  0  0
   -5.6123    1.1191    2.0504 C   0  0  0  0  0  0  0  0  0  0  0  0
   -4.9958    1.0447    3.3074 C   0  0  0  0  0  0  0  0  0  0  0  0
   -5.7003    1.4049    4.4529 C   0  0  0  0  0  0  0  0  0  0  0  0
   -4.9587    0.6725    0.7753 C   0  0  0  0  0  0  0  0  0  0  0  0
   -3.9211   -0.4539    0.8693 C   0  0  1  0  0  0  0  0  0  0  0  0
   -4.5830   -1.8869    0.8227 C   0  0  0  0  0  0  0  0  0  0  0  0
   -4.4086   -2.6918   -0.0847 O   0  0  0  0  0  0  0  0  0  0  0  0
   -5.3134   -2.1880    1.9605 N   0  0  0  0  0  0  0  0  0  0  0  0
   -5.3000   -3.5381    2.6013 C   0  0  2  0  0  0  0  0  0  0  0  0
   -6.0683   -4.7127    1.9046 C   0  0  0  0  0  0  0  0  0  0  0  0
   -7.1103   -4.5253    1.2712 O   0  0  0  0  0  0  0  0  0  0  0  0
   -5.6845   -6.0350    2.0795 N   0  0  0  0  0  0  0  0  0  0  0  0
   -4.2855   -6.5916    2.0639 C   0  0  2  0  0  0  0  0  0  0  0  0
   -3.7494   -6.3574    3.5105 C   0  0  0  0  0  0  0  0  0  0  0  0
   -4.5308   -6.4638    4.4715 O   0  0  0  0  0  0  0  0  0  0  0  0
   -2.4778   -6.1271    3.8898 N   0  0  0  0  0  0  0  0  0  0  0  0
   -1.1760   -6.1108    3.2163 C   0  0  2  0  0  0  0  0  0  0  0  0
   -1.1293   -4.7617    2.2677 C   0  0  0  0  0  0  0  0  0  0  0  0
   -1.7420   -3.7410    2.5993 O   0  0  0  0  0  0  0  0  0  0  0  0
   -0.3904   -4.7528    1.0987 N   0  0  0  0  0  0  0  0  0  0  0  0
   -0.2411   -3.6254    0.0889 C   0  0  2  0  0  0  0  0  0  0  0  0
    0.6937   -2.5209    0.6960 C   0  0  0  0  0  0  0  0  0  0  0  0
    1.8191   -2.8635    1.0967 O   0  0  0  0  0  0  0  0  0  0  0  0
    0.4288   -1.1837    0.7938 N   0  0  0  0  0  0  0  0  0  0  0  0
   -0.8174   -0.4546    1.1128 C   0  0  2  0  0  0  0  0  0  0  0  0
   -1.5896   -0.0648   -0.1550 C   0  0  0  0  0  0  0  0  0  0  0  0
   -1.0231    0.4168   -1.1399 O   0  0  0  0  0  0  0  0  0  0  0  0
   -2.9449   -0.1487   -0.1824 N   0  0  0  0  0  0  0  0  0  0  0  0
   -0.5406    0.9440    1.7497 C   0  0  0  0  0  0  0  0  0  0  0  0
   -0.2519    0.9818    3.2492 C   0  0  0  0  0  0  0  0  0  0  0  0
    1.0997    0.3757    3.5819 C   0  0  0  0  0  0  0  0  0  0  0  0
    1.3983    0.5755    4.9973 N   0  0  0  0  0  0  0  0  0  0  0  0
    2.4806    0.0340    5.4169 C   0  0  0  0  0  0  0  0  0  0  0  0
    3.3922   -0.7080    4.7459 N   0  0  0  0  0  0  0  0  0  0  0  0
    2.8497    0.1453    6.7114 N   0  0  0  0  0  0  0  0  0  0  0  0
   -1.4291   -3.1112   -0.7672 C   0  0  0  0  0  0  0  0  0  0  0  0
   -1.9931   -3.7395   -2.0692 C   0  0  0  0  0  0  0  0  0  0  0  0
   -1.8220   -4.9730   -2.6777 C   0  0  0  0  0  0  0  0  0  0  0  0
   -2.9670   -5.1788   -3.4319 N   0  0  0  0  0  0  0  0  0  0  0  0
   -3.3142   -3.9716   -3.9783 C   0  0  0  0  0  0  0  0  0  0  0  0
   -4.0582   -3.6587   -5.1270 C   0  0  0  0  0  0  0  0  0  0  0  0
   -4.3862   -2.3172   -5.3316 C   0  0  0  0  0  0  0  0  0  0  0  0
   -4.0499   -1.3649   -4.3688 C   0  0  0  0  0  0  0  0  0  0  0  0
   -3.2977   -1.7133   -3.2259 C   0  0  0  0  0  0  0  0  0  0  0  0
   -2.8644   -3.0431   -3.0368 C   0  0  0  0  0  0  0  0  0  0  0  0
   -0.6866   -7.5152    2.7378 C   0  0  0  0  0  0  0  0  0  0  0  0
   -0.9566   -8.8491    3.4636 C   0  0  0  0  0  0  0  0  0  0  0  0
   -2.1560   -9.3709    3.9290 C   0  0  0  0  0  0  0  0  0  0  0  0
   -1.9995  -10.7175    4.1934 N   0  0  0  0  0  0  0  0  0  0  0  0
   -0.7952  -11.1541    3.6857 C   0  0  0  0  0  0  0  0  0  0  0  0
   -0.3077  -12.4570    3.4445 C   0  0  0  0  0  0  0  0  0  0  0  0
    0.9882  -12.5895    2.9269 C   0  0  0  0  0  0  0  0  0  0  0  0
    1.7796  -11.4628    2.7183 C   0  0  0  0  0  0  0  0  0  0  0  0
    1.2670  -10.1716    2.9307 C   0  0  0  0  0  0  0  0  0  0  0  0
   -0.0631   -9.9998    3.3804 C   0  0  0  0  0  0  0  0  0  0  0  0
   -3.6883   -6.0843    0.7546 C   0  0  0  0  0  0  0  0  0  0  0  0
   -2.4921   -6.6906    0.0402 C   0  0  0  0  0  0  0  0  0  0  0  0
   -2.4491   -8.0314   -0.6611 C   0  0  0  0  0  0  0  0  0  0  0  0
   -1.0967   -8.5656   -0.8863 N   0  0  0  0  0  0  0  0  0  0  0  0
    0.0538   -8.0250   -0.9617 C   0  0  0  0  0  0  0  0  0  0  0  0
    0.5025   -6.7552   -0.8712 N   0  0  0  0  0  0  0  0  0  0  0  0
    1.1559   -8.7872   -1.1346 N   0  0  0  0  0  0  0  0  0  0  0  0
   -5.8438   -3.3405    4.0478 C   0  0  0  0  0  0  0  0  0  0  0  0
   -7.2662   -2.7573    4.0552 C   0  0  0  0  0  0  0  0  0  0  0  0
   -7.7969   -2.3588    5.4348 C   0  0  0  0  0  0  0  0  0  0  0  0
   -9.0408   -1.6403    5.1822 N   0  0  0  0  0  0  0  0  0  0  0  0
   -9.7695   -1.2109    6.1355 C   0  0  0  0  0  0  0  0  0  0  0  0
   -9.5896   -1.3085    7.4637 N   0  0  0  0  0  0  0  0  0  0  0  0
  -10.9212   -0.5781    5.8245 N   0  0  0  0  0  0  0  0  0  0  0  0
   -7.5619    2.1411    5.2393 H   0  0  0  0  0  0  0  0  0  0  0  0
   -8.5849    2.4718    2.9988 H   0  0  0  0  0  0  0  0  0  0  0  0
   -7.3545    1.8185    0.9722 H   0  0  0  0  0  0  0  0  0  0  0  0
   -3.9739    0.6975    3.4339 H   0  0  0  0  0  0  0  0  0  0  0  0
   -5.2352    1.3016    5.4297 H   0  0  0  0  0  0  0  0  0  0  0  0
   -4.4902    1.5772    0.3570 H   0  0  0  0  0  0  0  0  0  0  0  0
   -5.7259    0.3660    0.0493 H   0  0  0  0  0  0  0  0  0  0  0  0
   -3.3724   -0.4270    1.8109 H   0  0  0  0  0  0  0  0  0  0  0  0
   -5.3125   -1.4447    2.6464 H   0  0  0  0  0  0  0  0  0  0  0  0
   -4.2469   -3.8147    2.6663 H   0  0  0  0  0  0  0  0  0  0  0  0
   -6.3560   -6.6324    1.6136 H   0  0  0  0  0  0  0  0  0  0  0  0
   -4.4036   -7.6816    1.9912 H   0  0  0  0  0  0  0  0  0  0  0  0
   -2.4379   -6.0462    4.9021 H   0  0  0  0  0  0  0  0  0  0  0  0
   -0.4886   -5.8416    4.0363 H   0  0  0  0  0  0  0  0  0  0  0  0
    0.2682   -5.5154    0.9736 H   0  0  0  0  0  0  0  0  0  0  0  0
    0.4240   -4.0746   -0.6596 H   0  0  0  0  0  0  0  0  0  0  0  0
    1.2715   -0.6935    1.0632 H   0  0  0  0  0  0  0  0  0  0  0  0
   -1.4105   -1.0934    1.7679 H   0  0  0  0  0  0  0  0  0  0  0  0
   -3.3294    0.2772   -1.0162 H   0  0  0  0  0  0  0  0  0  0  0  0
   -1.4128    1.5961    1.5943 H   0  0  0  0  0  0  0  0  0  0  0  0
    0.2851    1.4361    1.2140 H   0  0  0  0  0  0  0  0  0  0  0  0
   -1.0546    0.4853    3.8055 H   0  0  0  0  0  0  0  0  0  0  0  0
   -0.2608    2.0331    3.5725 H   0  0  0  0  0  0  0  0  0  0  0  0
    1.8692    0.8654    2.9719 H   0  0  0  0  0  0  0  0  0  0  0  0
    1.0769   -0.6931    3.3512 H   0  0  0  0  0  0  0  0  0  0  0  0
    3.2795   -0.7226    3.7397 H   0  0  0  0  0  0  0  0  0  0  0  0
    4.3421   -0.4536    4.9897 H   0  0  0  0  0  0  0  0  0  0  0  0
    2.1085    0.5848    7.2476 H   0  0  0  0  0  0  0  0  0  0  0  0
    3.0828   -0.7574    7.1078 H   0  0  0  0  0  0  0  0  0  0  0  0
   -1.1106   -2.1393   -1.1411 H   0  0  0  0  0  0  0  0  0  0  0  0
   -2.2497   -2.9655   -0.0736 H   0  0  0  0  0  0  0  0  0  0  0  0
   -1.2255   -5.8466   -2.5001 H   0  0  0  0  0  0  0  0  0  0  0  0
   -3.5793   -5.9751   -3.3523 H   0  0  0  0  0  0  0  0  0  0  0  0
   -4.3393   -4.4260   -5.8438 H   0  0  0  0  0  0  0  0  0  0  0  0
   -4.9074   -2.0148   -6.2416 H   0  0  0  0  0  0  0  0  0  0  0  0
   -4.3303   -0.3260   -4.5290 H   0  0  0  0  0  0  0  0  0  0  0  0
   -2.9453   -0.9476   -2.5513 H   0  0  0  0  0  0  0  0  0  0  0  0
    0.3930   -7.4358    2.5628 H   0  0  0  0  0  0  0  0  0  0  0  0
   -1.1076   -7.7696    1.7767 H   0  0  0  0  0  0  0  0  0  0  0  0
   -3.1486   -8.9509    4.0208 H   0  0  0  0  0  0  0  0  0  0  0  0
   -2.7113  -11.3182    4.5923 H   0  0  0  0  0  0  0  0  0  0  0  0
   -0.9141  -13.3434    3.6202 H   0  0  0  0  0  0  0  0  0  0  0  0
    1.3896  -13.5808    2.7087 H   0  0  0  0  0  0  0  0  0  0  0  0
    2.8068  -11.5773    2.3775 H   0  0  0  0  0  0  0  0  0  0  0  0
    1.8942   -9.3067    2.7385 H   0  0  0  0  0  0  0  0  0  0  0  0
   -3.4414   -5.0296    0.9075 H   0  0  0  0  0  0  0  0  0  0  0  0
   -4.4867   -6.0868   -0.0002 H   0  0  0  0  0  0  0  0  0  0  0  0
   -1.6167   -6.5635    0.6270 H   0  0  0  0  0  0  0  0  0  0  0  0
   -2.3509   -5.9854   -0.7547 H   0  0  0  0  0  0  0  0  0  0  0  0
   -2.9481   -7.9512   -1.6355 H   0  0  0  0  0  0  0  0  0  0  0  0
   -2.9985   -8.7762   -0.0781 H   0  0  0  0  0  0  0  0  0  0  0  0
   -0.2105   -6.0549   -1.0015 H   0  0  0  0  0  0  0  0  0  0  0  0
    1.2632   -6.5976   -1.5338 H   0  0  0  0  0  0  0  0  0  0  0  0
    0.9338   -9.7706   -1.0230 H   0  0  0  0  0  0  0  0  0  0  0  0
    1.8993   -8.5149   -0.5011 H   0  0  0  0  0  0  0  0  0  0  0  0
   -5.1753   -2.6425    4.5717 H   0  0  0  0  0  0  0  0  0  0  0  0
   -5.8275   -4.2767    4.6129 H   0  0  0  0  0  0  0  0  0  0  0  0
   -7.9597   -3.4773    3.6058 H   0  0  0  0  0  0  0  0  0  0  0  0
   -7.3038   -1.8637    3.4203 H   0  0  0  0  0  0  0  0  0  0  0  0
   -7.0770   -1.7085    5.9457 H   0  0  0  0  0  0  0  0  0  0  0  0
   -7.9673   -3.2522    6.0458 H   0  0  0  0  0  0  0  0  0  0  0  0
   -8.6936   -1.6253    7.8023 H   0  0  0  0  0  0  0  0  0  0  0  0
  -10.1057   -0.6917    8.0710 H   0  0  0  0  0  0  0  0  0  0  0  0
  -10.9662   -0.4441    4.8176 H   0  0  0  0  0  0  0  0  0  0  0  0
  -11.0855    0.2883    6.3132 H   0  0  0  0  0  0  0  0  0  0  0  0
  1  2  2  0  0  0  0
  1  6  1  0  0  0  0
  1 73  1  0  0  0  0
  2  3  1  0  0  0  0
  2 74  1  0  0  0  0
  3  4  2  0  0  0  0
  3 75  1  0  0  0  0
  4  5  1  0  0  0  0
  4  7  1  0  0  0  0
  5  6  2  0  0  0  0
  5 76  1  0  0  0  0
  6 77  1  0  0  0  0
  7 78  1  0  0  0  0
  7 79  1  0  0  0  0
  8  9  1  0  0  0  0
  8 31  1  0  0  0  0
  8  7  1  0  0  0  0
  8 80  1  1  0  0  0
  9 10  2  0  0  0  0
  9 11  1  0  0  0  0
 11 12  1  0  0  0  0
 11 81  1  0  0  0  0
 12 13  1  0  0  0  0
 12 66  1  0  0  0  0
 12 82  1  1  0  0  0
 13 14  2  0  0  0  0
 13 15  1  0  0  0  0
 15 16  1  0  0  0  0
 15 83  1  0  0  0  0
 16 17  1  0  0  0  0
 16 59  1  0  0  0  0
 16 84  1  6  0  0  0
 17 18  2  0  0  0  0
 17 19  1  0  0  0  0
 19 20  1  0  0  0  0
 19 85  1  0  0  0  0
 20 21  1  0  0  0  0
 20 49  1  0  0  0  0
 20 86  1  1  0  0  0
 21 22  2  0  0  0  0
 21 23  1  0  0  0  0
 23 24  1  0  0  0  0
 23 87  1  0  0  0  0
 24 25  1  0  0  0  0
 24 39  1  0  0  0  0
 24 88  1  6  0  0  0
 25 26  2  0  0  0  0
 25 27  1  0  0  0  0
 27 28  1  0  0  0  0
 27 89  1  0  0  0  0
 28 29  1  0  0  0  0
 28 32  1  0  0  0  0
 28 90  1  1  0  0  0
 29 30  2  0  0  0  0
 29 31  1  0  0  0  0
 31 91  1  0  0  0  0
 32 33  1  0  0  0  0
 32 92  1  0  0  0  0
 32 93  1  0  0  0  0
 33 34  1  0  0  0  0
 33 94  1  0  0  0  0
 33 95  1  0  0  0  0
 34 35  1  0  0  0  0
 34 96  1  0  0  0  0
 34 97  1  0  0  0  0
 35 36  2  0  0  0  0
 36 37  1  0  0  0  0
 36 38  1  0  0  0  0
 37 98  1  0  0  0  0
 37 99  1  0  0  0  0
 38100  1  0  0  0  0
 38101  1  0  0  0  0
 39 40  1  0  0  0  0
 39102  1  0  0  0  0
 39103  1  0  0  0  0
 40 41  2  0  0  0  0
 40 48  1  0  0  0  0
 41 42  1  0  0  0  0
 41104  1  0  0  0  0
 42 43  1  0  0  0  0
 42105  1  0  0  0  0
 43 44  2  0  0  0  0
 43 48  1  0  0  0  0
 44 45  1  0  0  0  0
 44106  1  0  0  0  0
 45 46  2  0  0  0  0
 45107  1  0  0  0  0
 46 47  1  0  0  0  0
 46108  1  0  0  0  0
 47 48  2  0  0  0  0
 47109  1  0  0  0  0
 49 50  1  0  0  0  0
 49110  1  0  0  0  0
 49111  1  0  0  0  0
 50 51  2  0  0  0  0
 50 58  1  0  0  0  0
 51 52  1  0  0  0  0
 51112  1  0  0  0  0
 52 53  1  0  0  0  0
 52113  1  0  0  0  0
 53 54  2  0  0  0  0
 53 58  1  0  0  0  0
 54 55  1  0  0  0  0
 54114  1  0  0  0  0
 55 56  2  0  0  0  0
 55115  1  0  0  0  0
 56 57  1  0  0  0  0
 56116  1  0  0  0  0
 57 58  2  0  0  0  0
 57117  1  0  0  0  0
 59 60  1  0  0  0  0
 59118  1  0  0  0  0
 59119  1  0  0  0  0
 60 61  1  0  0  0  0
 60120  1  0  0  0  0
 60121  1  0  0  0  0
 61 62  1  0  0  0  0
 61122  1  0  0  0  0
 61123  1  0  0  0  0
 62 63  2  0  0  0  0
 63 64  1  0  0  0  0
 63 65  1  0  0  0  0
 64124  1  0  0  0  0
 64125  1  0  0  0  0
 65126  1  0  0  0  0
 65127  1  0  0  0  0
 66 67  1  0  0  0  0
 66128  1  0  0  0  0
 66129  1  0  0  0  0
 67 68  1  0  0  0  0
 67130  1  0  0  0  0
 67131  1  0  0  0  0
 68 69  1  0  0  0  0
 68132  1  0  0  0  0
 68133  1  0  0  0  0
 69 70  2  0  0  0  0
 70 71  1  0  0  0  0
 70 72  1  0  0  0  0
 71134  1  0  0  0  0
 71135  1  0  0  0  0
 72136  1  0  0  0  0
 72137  1  0  0  0  0
M  END
