
 OpenBabel10072620173D

 34 36  0  0  0  0  0  0  0  0999 V2000
    2.1699   -0.4218   -0.4750 C   0  0  0  0  0  0  0  0  0  0  0  0
    1.4911    0.8664    0.0121 C   0  0  0  0  0  0  0  0  0  0  0  0
    0.0525    0.4489    0.0124 C   0  0  0  0  0  0  0  0  0  0  0  0
   -0.0560   -0.9477    0.0196 C   0  0  0  0  0  0  0  0  0  0  0  0
    1.2967   -1.5880    0.0098 C   0  0  0  0  0  0  0  0  0  0  0  0
   -1.2915   -1.5681    0.0694 C   0  0  0  0  0  0  0  0  0  0  0  0
   -2.4276   -0.7514    0.0700 C   0  0  0  0  0  0  0  0  0  0  0  0
   -2.3251    0.6525    0.0800 C   0  0  0  0  0  0  0  0  0  0  0  0
   -1.0689    1.2607    0.0560 C   0  0  0  0  0  0  0  0  0  0  0  0
   -4.0423   -1.4951    0.0677 S   0  0  0  0  0  0  0  0  0  0  0  0
   -3.9060   -2.8809    0.4532 O   0  0  0  0  0  0  0  0  0  0  0  0
   -4.9413   -0.5932    0.7548 O   0  0  0  0  0  0  0  0  0  0  0  0
   -4.4521   -1.4401   -1.5600 N   0  0  0  0  0  0  0  0  0  0  0  0
   -3.6610   -2.2627   -2.4763 C   0  0  0  0  0  0  0  0  0  0  0  0
   -4.2162   -2.0894   -3.8434 C   0  0  0  0  0  0  0  0  0  0  0  0
   -5.3617   -2.5398   -4.4678 C   0  0  0  0  0  0  0  0  0  0  0  0
   -5.3218   -2.0314   -5.7884 C   0  0  0  0  0  0  0  0  0  0  0  0
   -4.1598   -1.3037   -5.8850 C   0  0  0  0  0  0  0  0  0  0  0  0
   -3.4853   -1.3251   -4.7069 O   0  0  0  0  0  0  0  0  0  0  0  0
    3.2066   -0.5054   -0.1348 H   0  0  0  0  0  0  0  0  0  0  0  0
    2.1888   -0.4224   -1.5740 H   0  0  0  0  0  0  0  0  0  0  0  0
    1.6856    1.7025   -0.6651 H   0  0  0  0  0  0  0  0  0  0  0  0
    1.8093    1.1228    1.0279 H   0  0  0  0  0  0  0  0  0  0  0  0
    1.3519   -2.4376   -0.6764 H   0  0  0  0  0  0  0  0  0  0  0  0
    1.5748   -1.9010    1.0210 H   0  0  0  0  0  0  0  0  0  0  0  0
   -1.3704   -2.6508    0.0919 H   0  0  0  0  0  0  0  0  0  0  0  0
   -3.2201    1.2702    0.1121 H   0  0  0  0  0  0  0  0  0  0  0  0
   -0.9783    2.3425    0.0698 H   0  0  0  0  0  0  0  0  0  0  0  0
   -4.6503   -0.4939   -1.8820 H   0  0  0  0  0  0  0  0  0  0  0  0
   -3.7153   -3.3170   -2.1887 H   0  0  0  0  0  0  0  0  0  0  0  0
   -2.6136   -1.9491   -2.4746 H   0  0  0  0  0  0  0  0  0  0  0  0
   -6.1276   -3.1581   -4.0198 H   0  0  0  0  0  0  0  0  0  0  0  0
   -6.0502   -2.1757   -6.5742 H   0  0  0  0  0  0  0  0  0  0  0  0
   -3.6925   -0.7402   -6.6808 H   0  0  0  0  0  0  0  0  0  0  0  0
  1  2  1  0  0  0  0
  1  5  1  0  0  0  0
  1 20  1  0  0  0  0
  1 21  1  0  0  0  0
  2  3  1  0  0  0  0
  2 22  1  0  0  0  0
  2 23  1  0  0  0  0
  3  4  2  0  0  0  0
  3  9  1  0  0  0  0
  4  5  1  0  0  0  0
  4  6  1  0  0  0  0
  5 24  1  0  0  0  0
  5 25  1  0  0  0  0
  6  7  2  0  0  0  0
  6 26  1  0  0  0  0
  7  8  1  0  0  0  0
  7 10  1  0  0  0  0
  8  9  2  0  0  0  0
  8 27  1  0  0  0  0
  9 28  1  0  0  0  0
 10 11  2  0  0  0  0
 10 12  2  0  0  0  0
 10 13  1  0  0  0  0
 13 14  1  0  0  0  0
 13 29  1  0  0  0  0
 14 15  1  0  0  0  0
 14 30  1  0  0  0  0
 14 31  1  0  0  0  0
 15 16  2  0  0  0  0
 15 19  1  0  0  0  0
 16 17  1  0  0  0  0
 16 32  1  0  0  0  0
 17 18  2  0  0  0  0
 17 33  1  0  0  0  0
 18 19  1  0  0  0  0
 18 34  1  0  0  0  0
M  END
