
 OpenBabel10072616273D

 21 20  0  0  0  0  0  0  0  0999 V2000
    1.0812    0.1356    0.0884 C   0  0  0  0  0  0  0  0  0  0  0  0
    2.6077    0.0096    0.0361 C   0  0  0  0  0  0  0  0  0  0  0  0
    3.0661   -1.4468    0.1688 C   0  0  0  0  0  0  0  0  0  0  0  0
    3.0995    0.5596   -1.3114 C   0  0  0  0  0  0  0  0  0  0  0  0
    3.2410    0.8528    1.0325 O   0  0  0  0  0  0  0  0  0  0  0  0
    3.0172    0.6419    2.3508 C   0  0  0  0  0  0  0  0  0  0  0  0
    2.3109   -0.2110    2.8588 O   0  0  0  0  0  0  0  0  0  0  0  0
    3.7975    1.6516    3.0994 C   0  0  0  0  0  0  0  0  0  0  0  0
    3.7630    1.6928    4.4373 C   0  0  0  0  0  0  0  0  0  0  0  0
    0.6103   -0.3694   -0.7620 H   0  0  0  0  0  0  0  0  0  0  0  0
    0.7778    1.1885    0.0804 H   0  0  0  0  0  0  0  0  0  0  0  0
    0.6658   -0.3037    1.0004 H   0  0  0  0  0  0  0  0  0  0  0  0
    2.7177   -2.0528   -0.6743 H   0  0  0  0  0  0  0  0  0  0  0  0
    2.6884   -1.9122    1.0843 H   0  0  0  0  0  0  0  0  0  0  0  0
    4.1592   -1.5080    0.2139 H   0  0  0  0  0  0  0  0  0  0  0  0
    2.6862   -0.0019   -2.1559 H   0  0  0  0  0  0  0  0  0  0  0  0
    4.1935    0.5215   -1.3722 H   0  0  0  0  0  0  0  0  0  0  0  0
    2.8204    1.6136   -1.4267 H   0  0  0  0  0  0  0  0  0  0  0  0
    4.3930    2.3513    2.5260 H   0  0  0  0  0  0  0  0  0  0  0  0
    3.1654    0.9902    5.0125 H   0  0  0  0  0  0  0  0  0  0  0  0
    4.3345    2.4339    4.9855 H   0  0  0  0  0  0  0  0  0  0  0  0
  1  2  1  0  0  0  0
  1 10  1  0  0  0  0
  1 11  1  0  0  0  0
  1 12  1  0  0  0  0
  2  3  1  0  0  0  0
  2  4  1  0  0  0  0
  2  5  1  0  0  0  0
  3 13  1  0  0  0  0
  3 14  1  0  0  0  0
  3 15  1  0  0  0  0
  4 16  1  0  0  0  0
  4 17  1  0  0  0  0
  4 18  1  0  0  0  0
  5  6  1  0  0  0  0
  6  7  2  0  0  0  0
  6  8  1  0  0  0  0
  8  9  2  0  0  0  0
  8 19  1  0  0  0  0
  9 20  1  0  0  0  0
  9 21  1  0  0  0  0
M  END
