
 OpenBabel10072620173D

 41 43  0  0  0  0  0  0  0  0999 V2000
    1.4651   -0.1292    0.0746 C   0  0  0  0  0  0  0  0  0  0  0  0
    0.7555   -0.7116   -0.9735 C   0  0  0  0  0  0  0  0  0  0  0  0
   -0.6229   -0.5132   -1.0799 C   0  0  0  0  0  0  0  0  0  0  0  0
   -1.3061    0.2602   -0.1313 C   0  0  0  0  0  0  0  0  0  0  0  0
   -0.5783    0.8571    0.9059 C   0  0  0  0  0  0  0  0  0  0  0  0
    0.7999    0.6587    1.0113 C   0  0  0  0  0  0  0  0  0  0  0  0
   -2.7536    0.5044   -0.2145 C   0  0  0  0  0  0  0  0  0  0  0  0
   -3.6317   -0.4489   -0.5650 C   0  0  0  0  0  0  0  0  0  0  0  0
   -5.0830   -0.2543   -0.6302 C   0  0  0  0  0  0  0  0  0  0  0  0
   -5.6632    0.9023   -1.1480 C   0  0  0  0  0  0  0  0  0  0  0  0
   -7.0483    0.9998   -1.2337 C   0  0  0  0  0  0  0  0  0  0  0  0
   -7.8403   -0.0151   -0.8175 N   0  3  0  0  0  0  0  0  0  0  0  0
   -7.2949   -1.1551   -0.3322 C   0  0  0  0  0  0  0  0  0  0  0  0
   -5.9171   -1.2960   -0.2308 C   0  0  0  0  0  0  0  0  0  0  0  0
   -9.3203    0.1043   -0.9167 C   0  0  0  0  0  0  0  0  0  0  0  0
   -9.7949   -0.4373   -2.2450 C   0  0  0  0  0  0  0  0  0  0  0  0
   -9.0136   -1.0530   -2.9723 O   0  0  0  0  0  0  0  0  0  0  0  0
  -11.2021   -0.2177   -2.7233 C   0  0  0  0  0  0  0  0  0  0  0  0
  -12.3101    0.1368   -1.9340 C   0  0  0  0  0  0  0  0  0  0  0  0
  -13.5771    0.2966   -2.5172 C   0  0  0  0  0  0  0  0  0  0  0  0
  -13.7539    0.0963   -3.8829 C   0  0  0  0  0  0  0  0  0  0  0  0
  -12.6744   -0.2587   -4.6803 C   0  0  0  0  0  0  0  0  0  0  0  0
  -11.4092   -0.4137   -4.1049 C   0  0  0  0  0  0  0  0  0  0  0  0
  -15.3129    0.2758   -4.5807 Cl  0  0  0  0  0  0  0  0  0  0  0  0
  -12.2528    0.3676   -0.2250 Cl  0  0  0  0  0  0  0  0  0  0  0  0
    2.5373   -0.2874    0.1610 H   0  0  0  0  0  0  0  0  0  0  0  0
    1.2768   -1.3164   -1.7116 H   0  0  0  0  0  0  0  0  0  0  0  0
   -1.1497   -0.9638   -1.9173 H   0  0  0  0  0  0  0  0  0  0  0  0
   -1.0763    1.4753    1.6490 H   0  0  0  0  0  0  0  0  0  0  0  0
    1.3532    1.1192    1.8261 H   0  0  0  0  0  0  0  0  0  0  0  0
   -3.0734    1.5023    0.0735 H   0  0  0  0  0  0  0  0  0  0  0  0
   -3.2808   -1.4555   -0.7892 H   0  0  0  0  0  0  0  0  0  0  0  0
   -5.0461    1.7228   -1.5095 H   0  0  0  0  0  0  0  0  0  0  0  0
   -7.5299    1.8825   -1.6444 H   0  0  0  0  0  0  0  0  0  0  0  0
   -7.9682   -1.9547   -0.0361 H   0  0  0  0  0  0  0  0  0  0  0  0
   -5.4999   -2.2238    0.1577 H   0  0  0  0  0  0  0  0  0  0  0  0
   -9.5671    1.1640   -0.8084 H   0  0  0  0  0  0  0  0  0  0  0  0
   -9.7274   -0.4861   -0.0920 H   0  0  0  0  0  0  0  0  0  0  0  0
  -14.4358    0.5682   -1.9040 H   0  0  0  0  0  0  0  0  0  0  0  0
  -12.8104   -0.4222   -5.7484 H   0  0  0  0  0  0  0  0  0  0  0  0
  -10.5849   -0.6974   -4.7611 H   0  0  0  0  0  0  0  0  0  0  0  0
  1  2  2  0  0  0  0
  1  6  1  0  0  0  0
  1 26  1  0  0  0  0
  2  3  1  0  0  0  0
  2 27  1  0  0  0  0
  3  4  2  0  0  0  0
  3 28  1  0  0  0  0
  4  5  1  0  0  0  0
  4  7  1  0  0  0  0
  5  6  2  0  0  0  0
  5 29  1  0  0  0  0
  6 30  1  0  0  0  0
  7  8  2  0  0  0  0
  7 31  1  0  0  0  0
  8  9  1  0  0  0  0
  8 32  1  0  0  0  0
  9 10  2  0  0  0  0
  9 14  1  0  0  0  0
 10 11  1  0  0  0  0
 10 33  1  0  0  0  0
 11 12  2  0  0  0  0
 11 34  1  0  0  0  0
 12 13  1  0  0  0  0
 12 15  1  0  0  0  0
 13 14  2  0  0  0  0
 13 35  1  0  0  0  0
 14 36  1  0  0  0  0
 15 16  1  0  0  0  0
 15 37  1  0  0  0  0
 15 38  1  0  0  0  0
 16 17  2  0  0  0  0
 16 18  1  0  0  0  0
 18 19  2  0  0  0  0
 18 23  1  0  0  0  0
 19 20  1  0  0  0  0
 19 25  1  0  0  0  0
 20 21  2  0  0  0  0
 20 39  1  0  0  0  0
 21 22  1  0  0  0  0
 21 24  1  0  0  0  0
 22 23  2  0  0  0  0
 22 40  1  0  0  0  0
 23 41  1  0  0  0  0
M  CHG  1  12   1
M  END
