
 OpenBabel10072619523D

 29 28  0  0  0  0  0  0  0  0999 V2000
    0.9339   -0.0574   -0.0484 C   0  0  0  0  0  0  0  0  0  0  0  0
    2.3539   -0.0574   -0.0484 O   0  0  0  0  0  0  0  0  0  0  0  0
    2.8272    0.7883   -1.0862 C   0  0  0  0  0  0  0  0  0  0  0  0
    4.3472    0.7883   -1.0862 C   0  0  0  0  0  0  0  0  0  0  0  0
    4.8206    1.6340   -2.1241 O   0  0  0  0  0  0  0  0  0  0  0  0
    6.2166    1.7979   -2.3253 C   0  0  0  0  0  0  0  0  0  0  0  0
    7.1007    1.1447   -1.5237 C   0  0  0  0  0  0  0  0  0  0  0  0
    8.8507    1.3502   -1.7758 Cl  0  0  0  0  0  0  0  0  0  0  0  0
    6.5074    0.0847   -0.2227 Cl  0  0  0  0  0  0  0  0  0  0  0  0
    6.6900    2.6436   -3.3632 O   0  0  0  0  0  0  0  0  0  0  0  0
    5.7550    2.8512   -4.8039 P   0  0  0  0  0  0  0  0  0  0  0  0
    5.0251    4.0537   -4.1569 O   0  0  0  0  0  0  0  0  0  0  0  0
    7.2069    3.1059   -5.7094 O   0  0  0  0  0  0  0  0  0  0  0  0
    7.5241    4.4900   -5.7158 C   0  0  0  0  0  0  0  0  0  0  0  0
    4.8200    3.0588   -6.2446 O   0  0  0  0  0  0  0  0  0  0  0  0
    4.7550    1.8271   -6.9482 C   0  0  0  0  0  0  0  0  0  0  0  0
    0.5772   -0.6946    0.7337 H   0  0  0  0  0  0  0  0  0  0  0  0
    0.5772   -0.4160   -0.9913 H   0  0  0  0  0  0  0  0  0  0  0  0
    0.5772    0.9385    0.1125 H   0  0  0  0  0  0  0  0  0  0  0  0
    2.4706    1.7842   -0.9254 H   0  0  0  0  0  0  0  0  0  0  0  0
    2.4706    0.4296   -2.0291 H   0  0  0  0  0  0  0  0  0  0  0  0
    4.7039   -0.2076   -1.2471 H   0  0  0  0  0  0  0  0  0  0  0  0
    4.7039    1.1470   -0.1434 H   0  0  0  0  0  0  0  0  0  0  0  0
    8.4221    4.6475   -6.2759 H   0  0  0  0  0  0  0  0  0  0  0  0
    7.6668    4.8279   -4.7106 H   0  0  0  0  0  0  0  0  0  0  0  0
    6.7225    5.0375   -6.1657 H   0  0  0  0  0  0  0  0  0  0  0  0
    4.1767    1.9555   -7.8393 H   0  0  0  0  0  0  0  0  0  0  0  0
    4.2952    1.0861   -6.3283 H   0  0  0  0  0  0  0  0  0  0  0  0
    5.7441    1.5117   -7.2073 H   0  0  0  0  0  0  0  0  0  0  0  0
  1  2  1  0  0  0  0
  1 17  1  0  0  0  0
  1 18  1  0  0  0  0
  1 19  1  0  0  0  0
  2  3  1  0  0  0  0
  3  4  1  0  0  0  0
  3 20  1  0  0  0  0
  3 21  1  0  0  0  0
  4  5  1  0  0  0  0
  4 22  1  0  0  0  0
  4 23  1  0  0  0  0
  5  6  1  0  0  0  0
  6  7  2  0  0  0  0
  6 10  1  0  0  0  0
  7  8  1  0  0  0  0
  7  9  1  0  0  0  0
 10 11  1  0  0  0  0
 11 12  2  0  0  0  0
 11 13  1  0  0  0  0
 11 15  1  0  0  0  0
 13 14  1  0  0  0  0
 14 24  1  0  0  0  0
 14 25  1  0  0  0  0
 14 26  1  0  0  0  0
 15 16  1  0  0  0  0
 16 27  1  0  0  0  0
 16 28  1  0  0  0  0
 16 29  1  0  0  0  0
M  END
