
 OpenBabel10072619473D

 38 40  0  0  0  0  0  0  0  0999 V2000
   -0.7765   -1.6881   -1.2135 C   0  0  0  0  0  0  0  0  0  0  0  0
   -1.3464   -1.3430    0.0039 C   0  0  0  0  0  0  0  0  0  0  0  0
   -1.0513   -0.1081    0.5790 C   0  0  0  0  0  0  0  0  0  0  0  0
   -0.1933    0.8114   -0.0397 C   0  0  0  0  0  0  0  0  0  0  0  0
    0.3818    0.4453   -1.2617 C   0  0  0  0  0  0  0  0  0  0  0  0
    0.0943   -0.7980   -1.8437 C   0  0  0  0  0  0  0  0  0  0  0  0
    1.4877    1.4701   -2.1037 Cl  0  0  0  0  0  0  0  0  0  0  0  0
    0.0423    2.1355    0.6328 C   0  0  0  0  0  0  0  0  0  0  0  0
   -1.1009    3.0289    0.4782 N   0  0  0  0  0  0  0  0  0  0  0  0
   -2.0313    3.3428    1.4291 C   0  0  0  0  0  0  0  0  0  0  0  0
   -2.8343    4.2827    0.8391 C   0  0  0  0  0  0  0  0  0  0  0  0
   -2.3385    4.4770   -0.4733 C   0  0  0  0  0  0  0  0  0  0  0  0
   -1.2567    3.7200   -0.6678 N   0  0  0  0  0  0  0  0  0  0  0  0
   -2.8510    5.3902   -1.3801 N   0  0  0  0  0  0  0  0  0  0  0  0
   -2.5731    5.5242   -2.7402 C   0  0  0  0  0  0  0  0  0  0  0  0
   -1.9285    4.3437   -3.7349 S   0  0  0  0  0  0  0  0  0  0  0  0
   -2.9273    6.8203   -3.1322 N   0  0  0  0  0  0  0  0  0  0  0  0
   -3.0679    7.4071   -4.4201 C   0  0  0  0  0  0  0  0  0  0  0  0
   -2.8819    8.8002   -4.5384 C   0  0  0  0  0  0  0  0  0  0  0  0
   -3.0080    9.4462   -5.7740 C   0  0  0  0  0  0  0  0  0  0  0  0
   -3.3487    8.7096   -6.9044 C   0  0  0  0  0  0  0  0  0  0  0  0
   -3.5787    7.3407   -6.7891 C   0  0  0  0  0  0  0  0  0  0  0  0
   -3.4480    6.6908   -5.5558 C   0  0  0  0  0  0  0  0  0  0  0  0
   -4.0430    6.4431   -8.1821 Cl  0  0  0  0  0  0  0  0  0  0  0  0
   -2.4702    9.7672   -3.1616 Cl  0  0  0  0  0  0  0  0  0  0  0  0
   -4.3071    5.1533    1.5990 Br  0  0  0  0  0  0  0  0  0  0  0  0
   -1.6006    0.1936    1.7618 F   0  0  0  0  0  0  0  0  0  0  0  0
   -1.0031   -2.6469   -1.6749 H   0  0  0  0  0  0  0  0  0  0  0  0
   -2.0255   -2.0215    0.5131 H   0  0  0  0  0  0  0  0  0  0  0  0
    0.5459   -1.0746   -2.7932 H   0  0  0  0  0  0  0  0  0  0  0  0
    0.9171    2.6687    0.2479 H   0  0  0  0  0  0  0  0  0  0  0  0
    0.2170    1.9895    1.7063 H   0  0  0  0  0  0  0  0  0  0  0  0
   -2.0303    2.8915    2.4123 H   0  0  0  0  0  0  0  0  0  0  0  0
   -3.6049    5.9574   -1.0195 H   0  0  0  0  0  0  0  0  0  0  0  0
   -2.7792    7.5019   -2.3953 H   0  0  0  0  0  0  0  0  0  0  0  0
   -2.8424   10.5175   -5.8579 H   0  0  0  0  0  0  0  0  0  0  0  0
   -3.4436    9.2055   -7.8684 H   0  0  0  0  0  0  0  0  0  0  0  0
   -3.6831    5.6324   -5.5066 H   0  0  0  0  0  0  0  0  0  0  0  0
  1  2  2  0  0  0  0
  1  6  1  0  0  0  0
  1 28  1  0  0  0  0
  2  3  1  0  0  0  0
  2 29  1  0  0  0  0
  3  4  2  0  0  0  0
  3 27  1  0  0  0  0
  4  5  1  0  0  0  0
  4  8  1  0  0  0  0
  5  6  2  0  0  0  0
  5  7  1  0  0  0  0
  6 30  1  0  0  0  0
  8  9  1  0  0  0  0
  8 31  1  0  0  0  0
  8 32  1  0  0  0  0
  9 10  1  0  0  0  0
  9 13  1  0  0  0  0
 10 11  2  0  0  0  0
 10 33  1  0  0  0  0
 11 12  1  0  0  0  0
 11 26  1  0  0  0  0
 12 13  2  0  0  0  0
 12 14  1  0  0  0  0
 14 15  1  0  0  0  0
 14 34  1  0  0  0  0
 15 16  2  0  0  0  0
 15 17  1  0  0  0  0
 17 18  1  0  0  0  0
 17 35  1  0  0  0  0
 18 19  2  0  0  0  0
 18 23  1  0  0  0  0
 19 20  1  0  0  0  0
 19 25  1  0  0  0  0
 20 21  2  0  0  0  0
 20 36  1  0  0  0  0
 21 22  1  0  0  0  0
 21 37  1  0  0  0  0
 22 23  2  0  0  0  0
 22 24  1  0  0  0  0
 23 38  1  0  0  0  0
M  END
