
 OpenBabel10072616313D

 34 34  0  0  0  0  0  0  0  0999 V2000
    1.8103   -0.1923   -0.9555 C   0  0  0  0  0  0  0  0  0  0  0  0
    2.5150    0.5686    0.1532 C   0  0  0  0  0  0  0  0  0  0  0  0
    3.1460    1.7367   -0.3986 O   0  0  0  0  0  0  0  0  0  0  0  0
    4.4520    1.6113   -0.7483 C   0  0  0  0  0  0  0  0  0  0  0  0
    5.1281    0.6011   -0.6019 O   0  0  0  0  0  0  0  0  0  0  0  0
    4.9960    2.8713   -1.3158 C   0  0  0  0  0  0  0  0  0  0  0  0
    4.1968    3.9166   -1.6131 C   0  0  0  0  0  0  0  0  0  0  0  0
    4.6320    5.2170   -2.1312 C   0  0  0  0  0  0  0  0  0  0  0  0
    4.8268    5.4174   -3.5015 C   0  0  0  0  0  0  0  0  0  0  0  0
    5.1989    6.6769   -3.9902 C   0  0  0  0  0  0  0  0  0  0  0  0
    5.3750    7.7462   -3.1123 C   0  0  0  0  0  0  0  0  0  0  0  0
    5.1875    7.5400   -1.7437 C   0  0  0  0  0  0  0  0  0  0  0  0
    4.8147    6.2863   -1.2520 C   0  0  0  0  0  0  0  0  0  0  0  0
    5.7174    9.0259   -3.4514 O   0  0  0  0  0  0  0  0  0  0  0  0
    5.8108    9.3190   -4.8389 C   0  0  0  0  0  0  0  0  0  0  0  0
    6.4665    2.9601   -1.5481 C   0  0  0  0  0  0  0  0  0  0  0  0
    6.9232    3.1988   -2.6637 O   0  0  0  0  0  0  0  0  0  0  0  0
    7.3692    2.7217   -0.3656 C   0  0  0  0  0  0  0  0  0  0  0  0
    1.2868   -1.0688   -0.5607 H   0  0  0  0  0  0  0  0  0  0  0  0
    2.5237   -0.5192   -1.7204 H   0  0  0  0  0  0  0  0  0  0  0  0
    1.0801    0.4559   -1.4531 H   0  0  0  0  0  0  0  0  0  0  0  0
    3.2312   -0.0694    0.6846 H   0  0  0  0  0  0  0  0  0  0  0  0
    1.7798    0.9151    0.8885 H   0  0  0  0  0  0  0  0  0  0  0  0
    3.1227    3.8627   -1.4478 H   0  0  0  0  0  0  0  0  0  0  0  0
    4.7053    4.5923   -4.2009 H   0  0  0  0  0  0  0  0  0  0  0  0
    5.3477    6.7842   -5.0593 H   0  0  0  0  0  0  0  0  0  0  0  0
    5.3250    8.3692   -1.0544 H   0  0  0  0  0  0  0  0  0  0  0  0
    4.6671    6.1597   -0.1826 H   0  0  0  0  0  0  0  0  0  0  0  0
    6.0823   10.3743   -4.9406 H   0  0  0  0  0  0  0  0  0  0  0  0
    4.8464    9.1722   -5.3360 H   0  0  0  0  0  0  0  0  0  0  0  0
    6.5990    8.7274   -5.3142 H   0  0  0  0  0  0  0  0  0  0  0  0
    6.8420    2.9056    0.5750 H   0  0  0  0  0  0  0  0  0  0  0  0
    8.2141    3.4150   -0.4144 H   0  0  0  0  0  0  0  0  0  0  0  0
    7.7361    1.6933   -0.3896 H   0  0  0  0  0  0  0  0  0  0  0  0
  1  2  1  0  0  0  0
  1 19  1  0  0  0  0
  1 20  1  0  0  0  0
  1 21  1  0  0  0  0
  2  3  1  0  0  0  0
  2 22  1  0  0  0  0
  2 23  1  0  0  0  0
  3  4  1  0  0  0  0
  4  5  2  0  0  0  0
  4  6  1  0  0  0  0
  6  7  2  0  0  0  0
  6 16  1  0  0  0  0
  7  8  1  0  0  0  0
  7 24  1  0  0  0  0
  8  9  2  0  0  0  0
  8 13  1  0  0  0  0
  9 10  1  0  0  0  0
  9 25  1  0  0  0  0
 10 11  2  0  0  0  0
 10 26  1  0  0  0  0
 11 12  1  0  0  0  0
 11 14  1  0  0  0  0
 12 13  2  0  0  0  0
 12 27  1  0  0  0  0
 13 28  1  0  0  0  0
 14 15  1  0  0  0  0
 15 29  1  0  0  0  0
 15 30  1  0  0  0  0
 15 31  1  0  0  0  0
 16 17  2  0  0  0  0
 16 18  1  0  0  0  0
 18 32  1  0  0  0  0
 18 33  1  0  0  0  0
 18 34  1  0  0  0  0
M  END
