
 OpenBabel10072619553D

 52 54  0  0  0  0  0  0  0  0999 V2000
   -0.7522   -1.0372   -2.5895 C   0  0  0  0  0  0  0  0  0  0  0  0
   -0.9360   -0.4716   -1.2270 C   0  0  0  0  0  0  0  0  0  0  0  0
   -1.4690   -1.0293   -0.0742 C   0  0  0  0  0  0  0  0  0  0  0  0
   -1.3782   -0.0350    0.9533 C   0  0  0  0  0  0  0  0  0  0  0  0
   -0.8136    1.1032    0.3880 C   0  0  0  0  0  0  0  0  0  0  0  0
   -0.5461    0.8111   -0.9278 N   0  0  0  0  0  0  0  0  0  0  0  0
   -0.5980    2.2786    1.1130 C   0  0  0  0  0  0  0  0  0  0  0  0
   -0.9750    2.2943    2.4635 C   0  0  0  0  0  0  0  0  0  0  0  0
   -1.5415    1.1724    3.0668 C   0  0  0  0  0  0  0  0  0  0  0  0
   -1.7363    0.0033    2.3172 C   0  0  0  0  0  0  0  0  0  0  0  0
   -1.9481    1.0692    4.3682 O   0  0  0  0  0  0  0  0  0  0  0  0
   -1.9150    2.2367    5.1679 C   0  0  0  0  0  0  0  0  0  0  0  0
   -2.6703    3.2200    4.6330 F   0  0  0  0  0  0  0  0  0  0  0  0
   -2.4158    1.9390    6.3881 F   0  0  0  0  0  0  0  0  0  0  0  0
   -0.6497    2.6784    5.3325 F   0  0  0  0  0  0  0  0  0  0  0  0
   -2.0384   -2.4059    0.0868 C   0  0  0  0  0  0  0  0  0  0  0  0
   -3.5703   -2.4030    0.1141 C   0  0  0  0  0  0  0  0  0  0  0  0
   -4.0643   -3.7684    0.3559 N   0  0  0  0  0  0  0  0  0  0  0  0
   -5.7058   -4.0608    0.1441 S   0  0  0  0  0  0  0  0  0  0  0  0
   -5.9938   -5.2858    0.8588 O   0  0  0  0  0  0  0  0  0  0  0  0
   -6.4221   -2.8347    0.4123 O   0  0  0  0  0  0  0  0  0  0  0  0
   -5.8036   -4.4227   -1.5883 C   0  0  0  0  0  0  0  0  0  0  0  0
   -6.4757   -3.5457   -2.4495 C   0  0  0  0  0  0  0  0  0  0  0  0
   -6.5714   -3.8402   -3.8150 C   0  0  0  0  0  0  0  0  0  0  0  0
   -5.9993   -5.0345   -4.2955 C   0  0  0  0  0  0  0  0  0  0  0  0
   -5.3155   -5.8929   -3.4242 C   0  0  0  0  0  0  0  0  0  0  0  0
   -5.2255   -5.5979   -2.0672 C   0  0  0  0  0  0  0  0  0  0  0  0
   -5.9936   -5.4490   -5.6040 O   0  0  0  0  0  0  0  0  0  0  0  0
   -7.2423   -5.3173   -6.2781 C   0  0  0  0  0  0  0  0  0  0  0  0
   -7.1612   -3.0129   -4.7338 O   0  0  0  0  0  0  0  0  0  0  0  0
   -7.8648   -1.8763   -4.2492 C   0  0  0  0  0  0  0  0  0  0  0  0
   -0.0289   -1.8587   -2.5619 H   0  0  0  0  0  0  0  0  0  0  0  0
   -0.3823   -0.2825   -3.2922 H   0  0  0  0  0  0  0  0  0  0  0  0
   -1.7007   -1.4232   -2.9760 H   0  0  0  0  0  0  0  0  0  0  0  0
   -0.1249    1.4601   -1.5781 H   0  0  0  0  0  0  0  0  0  0  0  0
   -0.1570    3.1569    0.6522 H   0  0  0  0  0  0  0  0  0  0  0  0
   -0.8016    3.2161    3.0117 H   0  0  0  0  0  0  0  0  0  0  0  0
   -2.1733   -0.8735    2.7864 H   0  0  0  0  0  0  0  0  0  0  0  0
   -1.6547   -2.8422    1.0184 H   0  0  0  0  0  0  0  0  0  0  0  0
   -1.6846   -3.0615   -0.7189 H   0  0  0  0  0  0  0  0  0  0  0  0
   -3.9587   -2.0216   -0.8371 H   0  0  0  0  0  0  0  0  0  0  0  0
   -3.9288   -1.7538    0.9210 H   0  0  0  0  0  0  0  0  0  0  0  0
   -3.6973   -4.2745    1.1619 H   0  0  0  0  0  0  0  0  0  0  0  0
   -6.9053   -2.6391   -2.0346 H   0  0  0  0  0  0  0  0  0  0  0  0
   -4.8655   -6.8042   -3.8113 H   0  0  0  0  0  0  0  0  0  0  0  0
   -4.7108   -6.2802   -1.3947 H   0  0  0  0  0  0  0  0  0  0  0  0
   -7.2904   -6.1009   -7.0408 H   0  0  0  0  0  0  0  0  0  0  0  0
   -7.2961   -4.3553   -6.7960 H   0  0  0  0  0  0  0  0  0  0  0  0
   -8.1005   -5.4546   -5.6104 H   0  0  0  0  0  0  0  0  0  0  0  0
   -8.3094   -1.3681   -5.1103 H   0  0  0  0  0  0  0  0  0  0  0  0
   -7.1853   -1.1697   -3.7622 H   0  0  0  0  0  0  0  0  0  0  0  0
   -8.6795   -2.1723   -3.5801 H   0  0  0  0  0  0  0  0  0  0  0  0
  1  2  1  0  0  0  0
  1 32  1  0  0  0  0
  1 33  1  0  0  0  0
  1 34  1  0  0  0  0
  2  3  2  0  0  0  0
  2  6  1  0  0  0  0
  3  4  1  0  0  0  0
  3 16  1  0  0  0  0
  4  5  2  0  0  0  0
  4 10  1  0  0  0  0
  5  6  1  0  0  0  0
  5  7  1  0  0  0  0
  6 35  1  0  0  0  0
  7  8  2  0  0  0  0
  7 36  1  0  0  0  0
  8  9  1  0  0  0  0
  8 37  1  0  0  0  0
  9 10  2  0  0  0  0
  9 11  1  0  0  0  0
 10 38  1  0  0  0  0
 11 12  1  0  0  0  0
 12 13  1  0  0  0  0
 12 14  1  0  0  0  0
 12 15  1  0  0  0  0
 16 17  1  0  0  0  0
 16 39  1  0  0  0  0
 16 40  1  0  0  0  0
 17 18  1  0  0  0  0
 17 41  1  0  0  0  0
 17 42  1  0  0  0  0
 18 19  1  0  0  0  0
 18 43  1  0  0  0  0
 19 20  2  0  0  0  0
 19 21  2  0  0  0  0
 19 22  1  0  0  0  0
 22 23  2  0  0  0  0
 22 27  1  0  0  0  0
 23 24  1  0  0  0  0
 23 44  1  0  0  0  0
 24 25  2  0  0  0  0
 24 30  1  0  0  0  0
 25 26  1  0  0  0  0
 25 28  1  0  0  0  0
 26 27  2  0  0  0  0
 26 45  1  0  0  0  0
 27 46  1  0  0  0  0
 28 29  1  0  0  0  0
 29 47  1  0  0  0  0
 29 48  1  0  0  0  0
 29 49  1  0  0  0  0
 30 31  1  0  0  0  0
 31 50  1  0  0  0  0
 31 51  1  0  0  0  0
 31 52  1  0  0  0  0
M  END
