
 OpenBabel10072619433D

132134  0  0  0  0  0  0  0  0999 V2000
   10.7272   -3.7084    1.1929 C   0  0  0  0  0  0  0  0  0  0  0  0
   10.8217   -2.2199    1.5069 C   0  0  0  0  0  0  0  0  0  0  0  0
    9.4503   -1.6408    1.8571 C   0  0  0  0  0  0  0  0  0  0  0  0
    9.5048   -0.1403    2.1707 C   0  0  0  0  0  0  0  0  0  0  0  0
    8.0994    0.3977    2.4746 C   0  0  0  0  0  0  0  0  0  0  0  0
    8.0039    1.9179    2.7053 C   0  0  0  0  0  0  0  0  0  0  0  0
    8.5098    2.8320    1.5645 C   0  0  0  0  0  0  0  0  0  0  0  0
    7.9627    2.4656    0.1666 C   0  0  0  0  0  0  0  0  0  0  0  0
    6.4480    2.3277   -0.0294 C   0  0  0  0  0  0  0  0  0  0  0  0
    5.6825    3.6467   -0.1295 C   0  0  0  0  0  0  0  0  0  0  0  0
    4.2826    3.4789   -0.7310 C   0  0  0  0  0  0  0  0  0  0  0  0
    3.3933    2.4972    0.0325 C   0  0  0  0  0  0  0  0  0  0  0  0
    2.0445    2.3289   -0.6506 C   0  0  0  0  0  0  0  0  0  0  0  0
    8.2944    4.3349    1.8998 C   0  0  0  0  0  0  0  0  0  0  0  0
    9.1144    4.8028    3.0343 N   0  0  0  0  0  0  0  0  0  0  0  0
    8.5431    5.9001    3.8683 C   0  0  0  0  0  0  0  0  0  0  0  0
    9.5005    7.0203    4.3378 C   0  0  0  0  0  0  0  0  0  0  0  0
   10.1268    7.9152    3.2522 C   0  0  0  0  0  0  0  0  0  0  0  0
    9.2633    8.3495    2.0686 C   0  0  0  0  0  0  0  0  0  0  0  0
   10.1370    9.0910    1.0456 C   0  0  0  0  0  0  0  0  0  0  0  0
    9.3027    9.7981   -0.0213 C   0  0  0  0  0  0  0  0  0  0  0  0
   10.1597   10.4720   -1.0936 C   0  0  0  0  0  0  0  0  0  0  0  0
   10.8373    9.4778   -2.0210 C   0  0  0  0  0  0  0  0  0  0  0  0
    8.9241    7.8371    5.5180 C   0  0  0  0  0  0  0  0  0  0  0  0
    7.8017    8.8306    5.2243 C   0  0  0  0  0  0  0  0  0  0  0  0
    7.3726    9.6120    6.4792 C   0  0  0  0  0  0  0  0  0  0  0  0
    8.4749   10.5137    7.0432 C   0  0  0  0  0  0  0  0  0  0  0  0
    7.9959   11.3175    8.2507 C   0  0  0  0  0  0  0  0  0  0  0  0
    9.1168   12.1868    8.7982 C   0  0  0  0  0  0  0  0  0  0  0  0
   10.4897    4.6070    3.0137 C   0  0  0  0  0  0  0  0  0  0  0  0
   11.2581    4.8624    1.8705 C   0  0  0  0  0  0  0  0  0  0  0  0
   12.6550    4.8547    1.9227 C   0  0  0  0  0  0  0  0  0  0  0  0
   13.3133    4.5901    3.1265 C   0  0  0  0  0  0  0  0  0  0  0  0
   12.5603    4.2088    4.2401 C   0  0  0  0  0  0  0  0  0  0  0  0
   11.1637    4.2076    4.1763 C   0  0  0  0  0  0  0  0  0  0  0  0
   14.7692    4.7249    3.2684 C   0  0  0  0  0  0  0  0  0  0  0  0
   15.4523    5.7628    2.7535 C   0  0  0  0  0  0  0  0  0  0  0  0
   16.8944    6.0319    2.9218 C   0  0  0  0  0  0  0  0  0  0  0  0
   17.7697    5.1793    3.6036 C   0  0  0  0  0  0  0  0  0  0  0  0
   19.1204    5.5146    3.7558 C   0  0  0  0  0  0  0  0  0  0  0  0
   19.6342    6.6975    3.2109 C   0  0  0  0  0  0  0  0  0  0  0  0
   18.7646    7.5548    2.5349 C   0  0  0  0  0  0  0  0  0  0  0  0
   17.4129    7.2218    2.3877 C   0  0  0  0  0  0  0  0  0  0  0  0
   21.0456    7.0744    3.3738 C   0  0  0  0  0  0  0  0  0  0  0  0
   22.0367    6.1739    3.2734 C   0  0  0  0  0  0  0  0  0  0  0  0
   23.4747    6.4334    3.4366 C   0  0  0  0  0  0  0  0  0  0  0  0
   23.9882    7.4903    4.1981 C   0  0  0  0  0  0  0  0  0  0  0  0
   25.3697    7.6303    4.3819 C   0  0  0  0  0  0  0  0  0  0  0  0
   26.2528    6.7069    3.8154 C   0  0  0  0  0  0  0  0  0  0  0  0
   25.7486    5.6539    3.0503 C   0  0  0  0  0  0  0  0  0  0  0  0
   24.3711    5.5177    2.8682 C   0  0  0  0  0  0  0  0  0  0  0  0
   27.6953    6.8015    4.0530 C   0  0  0  0  0  0  0  0  0  0  0  0
   28.3305    6.2328    5.0974 C   0  0  0  0  0  0  0  0  0  0  0  0
   27.6400    5.4965    6.1037 C   0  0  0  0  0  0  0  0  0  0  0  0
   27.0865    4.8983    6.9297 N   0  0  0  0  0  0  0  0  0  0  0  0
   29.7442    6.3600    5.2087 C   0  0  0  0  0  0  0  0  0  0  0  0
   30.8972    6.4704    5.2823 N   0  0  0  0  0  0  0  0  0  0  0  0
   11.7145   -4.1143    0.9462 H   0  0  0  0  0  0  0  0  0  0  0  0
   10.0646   -3.8933    0.3402 H   0  0  0  0  0  0  0  0  0  0  0  0
   10.3371   -4.2629    2.0530 H   0  0  0  0  0  0  0  0  0  0  0  0
   11.2434   -1.6981    0.6400 H   0  0  0  0  0  0  0  0  0  0  0  0
   11.5148   -2.0751    2.3432 H   0  0  0  0  0  0  0  0  0  0  0  0
    9.0371   -2.1811    2.7168 H   0  0  0  0  0  0  0  0  0  0  0  0
    8.7689   -1.8091    1.0146 H   0  0  0  0  0  0  0  0  0  0  0  0
    9.9429    0.3809    1.3142 H   0  0  0  0  0  0  0  0  0  0  0  0
   10.1628    0.0374    3.0291 H   0  0  0  0  0  0  0  0  0  0  0  0
    7.7274   -0.0999    3.3810 H   0  0  0  0  0  0  0  0  0  0  0  0
    7.4119    0.1010    1.6743 H   0  0  0  0  0  0  0  0  0  0  0  0
    8.5575    2.1534    3.6233 H   0  0  0  0  0  0  0  0  0  0  0  0
    6.9535    2.1591    2.9170 H   0  0  0  0  0  0  0  0  0  0  0  0
    9.5896    2.6623    1.4860 H   0  0  0  0  0  0  0  0  0  0  0  0
    8.3983    1.4950   -0.1043 H   0  0  0  0  0  0  0  0  0  0  0  0
    8.3606    3.1700   -0.5750 H   0  0  0  0  0  0  0  0  0  0  0  0
    6.0138    1.7070    0.7603 H   0  0  0  0  0  0  0  0  0  0  0  0
    6.2949    1.7772   -0.9682 H   0  0  0  0  0  0  0  0  0  0  0  0
    6.2391    4.3505   -0.7585 H   0  0  0  0  0  0  0  0  0  0  0  0
    5.5870    4.0995    0.8604 H   0  0  0  0  0  0  0  0  0  0  0  0
    4.3730    3.1517   -1.7735 H   0  0  0  0  0  0  0  0  0  0  0  0
    3.7952    4.4609   -0.7531 H   0  0  0  0  0  0  0  0  0  0  0  0
    3.2405    2.8490    1.0589 H   0  0  0  0  0  0  0  0  0  0  0  0
    3.8611    1.5091    0.0926 H   0  0  0  0  0  0  0  0  0  0  0  0
    1.5029    3.2788   -0.6968 H   0  0  0  0  0  0  0  0  0  0  0  0
    1.4281    1.6080   -0.1028 H   0  0  0  0  0  0  0  0  0  0  0  0
    2.1693    1.9540   -1.6721 H   0  0  0  0  0  0  0  0  0  0  0  0
    7.2444    4.4858    2.1685 H   0  0  0  0  0  0  0  0  0  0  0  0
    8.4869    4.9663    1.0240 H   0  0  0  0  0  0  0  0  0  0  0  0
    8.1189    5.4177    4.7573 H   0  0  0  0  0  0  0  0  0  0  0  0
    7.6941    6.3624    3.3497 H   0  0  0  0  0  0  0  0  0  0  0  0
   10.3593    6.5328    4.8100 H   0  0  0  0  0  0  0  0  0  0  0  0
   11.0032    7.3979    2.8506 H   0  0  0  0  0  0  0  0  0  0  0  0
   10.5380    8.8114    3.7339 H   0  0  0  0  0  0  0  0  0  0  0  0
    8.4514    9.0013    2.3984 H   0  0  0  0  0  0  0  0  0  0  0  0
    8.8025    7.4879    1.5758 H   0  0  0  0  0  0  0  0  0  0  0  0
   10.8238    8.3710    0.5875 H   0  0  0  0  0  0  0  0  0  0  0  0
   10.7611    9.8361    1.5539 H   0  0  0  0  0  0  0  0  0  0  0  0
    8.6973   10.5685    0.4713 H   0  0  0  0  0  0  0  0  0  0  0  0
    8.6060    9.0934   -0.4884 H   0  0  0  0  0  0  0  0  0  0  0  0
   10.9148   11.1131   -0.6253 H   0  0  0  0  0  0  0  0  0  0  0  0
    9.5159   11.1241   -1.6936 H   0  0  0  0  0  0  0  0  0  0  0  0
   11.5446    8.8405   -1.4862 H   0  0  0  0  0  0  0  0  0  0  0  0
   11.3940   10.0045   -2.8001 H   0  0  0  0  0  0  0  0  0  0  0  0
   10.1022    8.8337   -2.5108 H   0  0  0  0  0  0  0  0  0  0  0  0
    9.7717    8.3777    5.9536 H   0  0  0  0  0  0  0  0  0  0  0  0
    8.5794    7.1409    6.2926 H   0  0  0  0  0  0  0  0  0  0  0  0
    6.9290    8.2946    4.8321 H   0  0  0  0  0  0  0  0  0  0  0  0
    8.1167    9.5501    4.4636 H   0  0  0  0  0  0  0  0  0  0  0  0
    7.0427    8.9110    7.2549 H   0  0  0  0  0  0  0  0  0  0  0  0
    6.5059   10.2301    6.2170 H   0  0  0  0  0  0  0  0  0  0  0  0
    8.8246   11.1963    6.2600 H   0  0  0  0  0  0  0  0  0  0  0  0
    9.3329    9.9098    7.3551 H   0  0  0  0  0  0  0  0  0  0  0  0
    7.6484   10.6390    9.0378 H   0  0  0  0  0  0  0  0  0  0  0  0
    7.1481   11.9517    7.9712 H   0  0  0  0  0  0  0  0  0  0  0  0
    9.9784   11.5778    9.0903 H   0  0  0  0  0  0  0  0  0  0  0  0
    8.7786   12.7406    9.6788 H   0  0  0  0  0  0  0  0  0  0  0  0
    9.4508   12.9103    8.0479 H   0  0  0  0  0  0  0  0  0  0  0  0
   10.7791    5.1615    0.9429 H   0  0  0  0  0  0  0  0  0  0  0  0
   13.2168    5.1036    1.0259 H   0  0  0  0  0  0  0  0  0  0  0  0
   13.0500    3.9625    5.1794 H   0  0  0  0  0  0  0  0  0  0  0  0
   10.5898    3.9340    5.0581 H   0  0  0  0  0  0  0  0  0  0  0  0
   15.2445    3.9656    3.8804 H   0  0  0  0  0  0  0  0  0  0  0  0
   14.9135    6.5216    2.1841 H   0  0  0  0  0  0  0  0  0  0  0  0
   17.4247    4.2479    4.0431 H   0  0  0  0  0  0  0  0  0  0  0  0
   19.7638    4.8432    4.3198 H   0  0  0  0  0  0  0  0  0  0  0  0
   19.1252    8.4884    2.1109 H   0  0  0  0  0  0  0  0  0  0  0  0
   16.7630    7.9151    1.8578 H   0  0  0  0  0  0  0  0  0  0  0  0
   21.2407    8.1261    3.5607 H   0  0  0  0  0  0  0  0  0  0  0  0
   21.7916    5.1393    3.0373 H   0  0  0  0  0  0  0  0  0  0  0  0
   23.3228    8.2012    4.6823 H   0  0  0  0  0  0  0  0  0  0  0  0
   25.7381    8.4562    4.9859 H   0  0  0  0  0  0  0  0  0  0  0  0
   26.4120    4.9194    2.6005 H   0  0  0  0  0  0  0  0  0  0  0  0
   24.0009    4.6767    2.2845 H   0  0  0  0  0  0  0  0  0  0  0  0
   28.2448    7.3570    3.2948 H   0  0  0  0  0  0  0  0  0  0  0  0
  1  2  1  0  0  0  0
  1 58  1  0  0  0  0
  1 59  1  0  0  0  0
  1 60  1  0  0  0  0
  2  3  1  0  0  0  0
  2 61  1  0  0  0  0
  2 62  1  0  0  0  0
  3  4  1  0  0  0  0
  3 63  1  0  0  0  0
  3 64  1  0  0  0  0
  4  5  1  0  0  0  0
  4 65  1  0  0  0  0
  4 66  1  0  0  0  0
  5  6  1  0  0  0  0
  5 67  1  0  0  0  0
  5 68  1  0  0  0  0
  6  7  1  0  0  0  0
  6 69  1  0  0  0  0
  6 70  1  0  0  0  0
  7  8  1  0  0  0  0
  7 14  1  0  0  0  0
  7 71  1  0  0  0  0
  8  9  1  0  0  0  0
  8 72  1  0  0  0  0
  8 73  1  0  0  0  0
  9 10  1  0  0  0  0
  9 74  1  0  0  0  0
  9 75  1  0  0  0  0
 10 11  1  0  0  0  0
 10 76  1  0  0  0  0
 10 77  1  0  0  0  0
 11 12  1  0  0  0  0
 11 78  1  0  0  0  0
 11 79  1  0  0  0  0
 12 13  1  0  0  0  0
 12 80  1  0  0  0  0
 12 81  1  0  0  0  0
 13 82  1  0  0  0  0
 13 83  1  0  0  0  0
 13 84  1  0  0  0  0
 14 15  1  0  0  0  0
 14 85  1  0  0  0  0
 14 86  1  0  0  0  0
 15 16  1  0  0  0  0
 15 30  1  0  0  0  0
 16 17  1  0  0  0  0
 16 87  1  0  0  0  0
 16 88  1  0  0  0  0
 17 18  1  0  0  0  0
 17 24  1  0  0  0  0
 17 89  1  0  0  0  0
 18 19  1  0  0  0  0
 18 90  1  0  0  0  0
 18 91  1  0  0  0  0
 19 20  1  0  0  0  0
 19 92  1  0  0  0  0
 19 93  1  0  0  0  0
 20 21  1  0  0  0  0
 20 94  1  0  0  0  0
 20 95  1  0  0  0  0
 21 22  1  0  0  0  0
 21 96  1  0  0  0  0
 21 97  1  0  0  0  0
 22 23  1  0  0  0  0
 22 98  1  0  0  0  0
 22 99  1  0  0  0  0
 23100  1  0  0  0  0
 23101  1  0  0  0  0
 23102  1  0  0  0  0
 24 25  1  0  0  0  0
 24103  1  0  0  0  0
 24104  1  0  0  0  0
 25 26  1  0  0  0  0
 25105  1  0  0  0  0
 25106  1  0  0  0  0
 26 27  1  0  0  0  0
 26107  1  0  0  0  0
 26108  1  0  0  0  0
 27 28  1  0  0  0  0
 27109  1  0  0  0  0
 27110  1  0  0  0  0
 28 29  1  0  0  0  0
 28111  1  0  0  0  0
 28112  1  0  0  0  0
 29113  1  0  0  0  0
 29114  1  0  0  0  0
 29115  1  0  0  0  0
 30 31  2  0  0  0  0
 30 35  1  0  0  0  0
 31 32  1  0  0  0  0
 31116  1  0  0  0  0
 32 33  2  0  0  0  0
 32117  1  0  0  0  0
 33 34  1  0  0  0  0
 33 36  1  0  0  0  0
 34 35  2  0  0  0  0
 34118  1  0  0  0  0
 35119  1  0  0  0  0
 36 37  2  0  0  0  0
 36120  1  0  0  0  0
 37 38  1  0  0  0  0
 37121  1  0  0  0  0
 38 39  2  0  0  0  0
 38 43  1  0  0  0  0
 39 40  1  0  0  0  0
 39122  1  0  0  0  0
 40 41  2  0  0  0  0
 40123  1  0  0  0  0
 41 42  1  0  0  0  0
 41 44  1  0  0  0  0
 42 43  2  0  0  0  0
 42124  1  0  0  0  0
 43125  1  0  0  0  0
 44 45  2  0  0  0  0
 44126  1  0  0  0  0
 45 46  1  0  0  0  0
 45127  1  0  0  0  0
 46 47  2  0  0  0  0
 46 51  1  0  0  0  0
 47 48  1  0  0  0  0
 47128  1  0  0  0  0
 48 49  2  0  0  0  0
 48129  1  0  0  0  0
 49 50  1  0  0  0  0
 49 52  1  0  0  0  0
 50 51  2  0  0  0  0
 50130  1  0  0  0  0
 51131  1  0  0  0  0
 52 53  2  0  0  0  0
 52132  1  0  0  0  0
 53 54  1  0  0  0  0
 53 56  1  0  0  0  0
 54 55  3  0  0  0  0
 56 57  3  0  0  0  0
M  END
