
 OpenBabel10072619423D

 26 27  0  0  0  0  0  0  0  0999 V2000
   -0.7205    1.2727    0.1159 C   0  0  0  0  0  0  0  0  0  0  0  0
    0.2301    0.2525    0.1844 C   0  0  0  0  0  0  0  0  0  0  0  0
   -0.1851   -1.0730    0.1531 C   0  0  0  0  0  0  0  0  0  0  0  0
   -1.5381   -1.3856    0.0526 C   0  0  0  0  0  0  0  0  0  0  0  0
   -2.4915   -0.3658   -0.0150 C   0  0  0  0  0  0  0  0  0  0  0  0
   -2.0879    0.9721    0.0167 C   0  0  0  0  0  0  0  0  0  0  0  0
   -2.9743    2.0647   -0.0415 N   0  0  0  0  0  0  0  0  0  0  0  0
   -4.3432    2.0467   -0.0936 C   0  0  0  0  0  0  0  0  0  0  0  0
   -5.0499    1.0410   -0.1154 O   0  0  0  0  0  0  0  0  0  0  0  0
   -4.9808    3.2549   -0.1174 N   0  0  0  0  0  0  0  0  0  0  0  0
   -4.3829    4.4785   -0.0989 C   0  0  0  0  0  0  0  0  0  0  0  0
   -3.1042    4.7644   -0.0490 N   0  0  0  0  0  0  0  0  0  0  0  0
   -2.8852    6.1254   -0.0636 N   0  0  0  0  0  0  0  0  0  0  0  0
   -4.0125    6.8149   -0.1298 C   0  0  0  0  0  0  0  0  0  0  0  0
   -5.4268    5.8191   -0.1578 S   0  0  0  0  0  0  0  0  0  0  0  0
   -4.1382    8.3000   -0.1855 C   0  0  0  0  0  0  0  0  0  0  0  0
   -2.9361    8.9285   -0.2625 F   0  0  0  0  0  0  0  0  0  0  0  0
   -4.8568    8.7105   -1.2652 F   0  0  0  0  0  0  0  0  0  0  0  0
   -4.7694    8.7988    0.9109 F   0  0  0  0  0  0  0  0  0  0  0  0
   -2.0539   -3.0283    0.0073 Cl  0  0  0  0  0  0  0  0  0  0  0  0
    0.7417   -2.0398    0.2214 F   0  0  0  0  0  0  0  0  0  0  0  0
   -0.3796    2.3060    0.1461 H   0  0  0  0  0  0  0  0  0  0  0  0
    1.2877    0.4837    0.2635 H   0  0  0  0  0  0  0  0  0  0  0  0
   -3.5380   -0.6421   -0.0936 H   0  0  0  0  0  0  0  0  0  0  0  0
   -2.5458    2.9862   -0.0228 H   0  0  0  0  0  0  0  0  0  0  0  0
   -5.9885    3.2061   -0.1514 H   0  0  0  0  0  0  0  0  0  0  0  0
  1  2  2  0  0  0  0
  1  6  1  0  0  0  0
  1 22  1  0  0  0  0
  2  3  1  0  0  0  0
  2 23  1  0  0  0  0
  3  4  2  0  0  0  0
  3 21  1  0  0  0  0
  4  5  1  0  0  0  0
  4 20  1  0  0  0  0
  5  6  2  0  0  0  0
  5 24  1  0  0  0  0
  6  7  1  0  0  0  0
  7  8  1  0  0  0  0
  7 25  1  0  0  0  0
  8  9  2  0  0  0  0
  8 10  1  0  0  0  0
 10 11  1  0  0  0  0
 10 26  1  0  0  0  0
 11 12  2  0  0  0  0
 11 15  1  0  0  0  0
 12 13  1  0  0  0  0
 13 14  2  0  0  0  0
 14 15  1  0  0  0  0
 14 16  1  0  0  0  0
 16 17  1  0  0  0  0
 16 18  1  0  0  0  0
 16 19  1  0  0  0  0
M  END
