
 OpenBabel10072620103D

 28 28  0  0  1  0  0  0  0  0999 V2000
    2.5463   -0.4521    0.3366 C   0  0  0  0  0  0  0  0  0  0  0  0
    1.0700   -0.2198    0.1946 C   0  0  0  0  0  0  0  0  0  0  0  0
    0.5438    1.0838    0.1710 C   0  0  0  0  0  0  0  0  0  0  0  0
   -0.8260    1.2981    0.0127 C   0  0  0  0  0  0  0  0  0  0  0  0
   -1.6753    0.1897   -0.1118 C   0  0  0  0  0  0  0  0  0  0  0  0
   -1.1638   -1.1093   -0.0772 C   0  0  0  0  0  0  0  0  0  0  0  0
    0.2057   -1.3121    0.0650 C   0  0  0  0  0  0  0  0  0  0  0  0
   -1.4300    2.5722   -0.0544 N   0  0  0  0  0  0  0  0  0  0  0  0
   -0.8343    3.8049    0.0814 C   0  0  0  0  0  0  0  0  0  0  0  0
    0.3355    4.0389    0.3366 O   0  0  0  0  0  0  0  0  0  0  0  0
   -1.7435    4.8134   -0.1369 N   0  0  0  0  0  0  0  0  0  0  0  0
   -1.3932    6.2123   -0.0877 C   0  0  3  0  0  0  0  0  0  0  0  0
   -0.7557    6.8187   -1.4017 C   0  0  0  0  0  0  0  0  0  0  0  0
   -1.7123    6.3663   -2.8589 Cl  0  0  0  0  0  0  0  0  0  0  0  0
   -0.7975    8.6262   -1.2792 Cl  0  0  0  0  0  0  0  0  0  0  0  0
    0.9476    6.3506   -1.6685 Cl  0  0  0  0  0  0  0  0  0  0  0  0
   -2.6540    6.8213    0.2360 O   0  0  0  0  0  0  0  0  0  0  0  0
    3.0818    0.4807    0.5434 H   0  0  0  0  0  0  0  0  0  0  0  0
    2.9495   -0.8811   -0.5872 H   0  0  0  0  0  0  0  0  0  0  0  0
    2.7367   -1.1403    1.1676 H   0  0  0  0  0  0  0  0  0  0  0  0
    1.2321    1.9179    0.2674 H   0  0  0  0  0  0  0  0  0  0  0  0
   -2.7457    0.3192   -0.2419 H   0  0  0  0  0  0  0  0  0  0  0  0
   -1.8339   -1.9608   -0.1695 H   0  0  0  0  0  0  0  0  0  0  0  0
    0.6011   -2.3259    0.0719 H   0  0  0  0  0  0  0  0  0  0  0  0
   -2.4203    2.5748   -0.2317 H   0  0  0  0  0  0  0  0  0  0  0  0
   -2.7280    4.6266   -0.0506 H   0  0  0  0  0  0  0  0  0  0  0  0
   -0.7237    6.3841    0.7649 H   0  0  0  0  0  0  0  0  0  0  0  0
   -2.5069    7.7849    0.2555 H   0  0  0  0  0  0  0  0  0  0  0  0
  1  2  1  0  0  0  0
  1 18  1  0  0  0  0
  1 19  1  0  0  0  0
  1 20  1  0  0  0  0
  2  3  2  0  0  0  0
  2  7  1  0  0  0  0
  3  4  1  0  0  0  0
  3 21  1  0  0  0  0
  4  5  2  0  0  0  0
  4  8  1  0  0  0  0
  5  6  1  0  0  0  0
  5 22  1  0  0  0  0
  6  7  2  0  0  0  0
  6 23  1  0  0  0  0
  7 24  1  0  0  0  0
  8  9  1  0  0  0  0
  8 25  1  0  0  0  0
  9 10  2  0  0  0  0
  9 11  1  0  0  0  0
 11 12  1  0  0  0  0
 11 26  1  0  0  0  0
 12 13  1  0  0  0  0
 12 17  1  0  0  0  0
 12 27  1  0  0  0  0
 13 14  1  0  0  0  0
 13 15  1  0  0  0  0
 13 16  1  0  0  0  0
 17 28  1  0  0  0  0
M  END
