
 OpenBabel10072620013D

 82 87  0  0  0  0  0  0  0  0999 V2000
    0.0482    0.6598   -1.4865 C   0  0  0  0  0  0  0  0  0  0  0  0
   -0.6801   -0.5139   -1.1895 C   0  0  0  0  0  0  0  0  0  0  0  0
   -0.7065   -1.0635    0.1063 C   0  0  0  0  0  0  0  0  0  0  0  0
    0.0821   -0.4081    1.0719 C   0  0  0  0  0  0  0  0  0  0  0  0
    0.8465    0.7519    0.7571 C   0  0  0  0  0  0  0  0  0  0  0  0
    0.8167    1.3146   -0.5213 C   0  0  0  0  0  0  0  0  0  0  0  0
    1.3623    2.5948   -0.7942 N   0  0  0  0  0  0  0  0  0  0  0  0
    2.4627    2.5491   -1.3993 N   0  0  0  0  0  0  0  0  0  0  0  0
    2.9343    3.8334   -1.8494 C   0  0  0  0  0  0  0  0  0  0  0  0
    2.7191    5.0759   -1.2174 C   0  0  0  0  0  0  0  0  0  0  0  0
    2.1759    5.1444    0.0494 C   0  0  0  0  0  0  0  0  0  0  0  0
    1.3347    6.2242    0.2595 C   0  0  0  0  0  0  0  0  0  0  0  0
    1.2370    7.3001   -0.6486 C   0  0  0  0  0  0  0  0  0  0  0  0
    2.2487    7.4600   -1.5737 C   0  0  0  0  0  0  0  0  0  0  0  0
    2.9818    6.3153   -1.8974 C   0  0  0  0  0  0  0  0  0  0  0  0
    3.8213    6.3248   -3.0078 C   0  0  0  0  0  0  0  0  0  0  0  0
    4.1386    5.0910   -3.5709 C   0  0  0  0  0  0  0  0  0  0  0  0
    3.6246    3.8830   -3.0606 C   0  0  0  0  0  0  0  0  0  0  0  0
    4.5213    7.4730   -3.4003 N   0  0  0  0  0  0  0  0  0  0  0  0
    0.3659    6.2405    1.7134 S   0  0  0  0  0  0  0  0  0  0  0  0
   -1.0070    6.4626    1.3315 O   0  0  0  0  0  0  0  0  0  0  0  0
    0.7557    5.1297    2.5603 O   0  0  0  0  0  0  0  0  0  0  0  0
    0.8650    7.5867    2.4448 O   0  0  0  0  0  0  0  0  0  0  0  0
    0.0299   -0.8736    2.7848 S   0  0  0  0  0  0  0  0  0  0  0  0
   -1.3158   -1.2166    3.1447 O   0  0  0  0  0  0  0  0  0  0  0  0
    1.1604   -1.7568    3.0315 O   0  0  0  0  0  0  0  0  0  0  0  0
    0.3170    0.5068    3.5766 O   0  0  0  0  0  0  0  0  0  0  0  0
   -1.6518   -2.1929    0.3484 C   0  0  0  0  0  0  0  0  0  0  0  0
   -1.3760   -3.4978    0.1530 C   0  0  0  0  0  0  0  0  0  0  0  0
   -2.3601   -4.6191    0.2084 C   0  0  0  0  0  0  0  0  0  0  0  0
   -3.0255   -5.1390   -0.9188 C   0  0  0  0  0  0  0  0  0  0  0  0
   -3.8746   -6.2801   -0.8424 C   0  0  0  0  0  0  0  0  0  0  0  0
   -4.0828   -6.9589    0.3604 C   0  0  0  0  0  0  0  0  0  0  0  0
   -3.4237   -6.4407    1.4903 C   0  0  0  0  0  0  0  0  0  0  0  0
   -2.5849   -5.2925    1.4193 C   0  0  0  0  0  0  0  0  0  0  0  0
   -4.7436   -8.2242    0.4019 N   0  0  0  0  0  0  0  0  0  0  0  0
   -5.9522   -8.2072    0.0273 N   0  0  0  0  0  0  0  0  0  0  0  0
   -6.5417   -9.5291   -0.0169 C   0  0  0  0  0  0  0  0  0  0  0  0
   -6.3559  -10.5282    0.9600 C   0  0  0  0  0  0  0  0  0  0  0  0
   -5.7659  -10.2299    2.1679 C   0  0  0  0  0  0  0  0  0  0  0  0
   -4.9100  -11.2097    2.6473 C   0  0  0  0  0  0  0  0  0  0  0  0
   -4.8870  -12.5170    2.1170 C   0  0  0  0  0  0  0  0  0  0  0  0
   -5.9561  -12.9111    1.3341 C   0  0  0  0  0  0  0  0  0  0  0  0
   -6.6922  -11.8963    0.7152 C   0  0  0  0  0  0  0  0  0  0  0  0
   -7.6062  -12.2052   -0.2859 C   0  0  0  0  0  0  0  0  0  0  0  0
   -7.9131  -11.1894   -1.1906 C   0  0  0  0  0  0  0  0  0  0  0  0
   -7.3143   -9.9098   -1.1167 C   0  0  0  0  0  0  0  0  0  0  0  0
   -8.3743  -13.3769   -0.2483 N   0  0  0  0  0  0  0  0  0  0  0  0
   -3.8750  -10.8104    3.9986 S   0  0  0  0  0  0  0  0  0  0  0  0
   -4.2713  -11.6916    5.0815 O   0  0  0  0  0  0  0  0  0  0  0  0
   -2.5207  -10.7199    3.5205 O   0  0  0  0  0  0  0  0  0  0  0  0
   -4.3204   -9.3362    4.4882 O   0  0  0  0  0  0  0  0  0  0  0  0
   -2.7218   -4.4928   -2.5447 S   0  0  0  0  0  0  0  0  0  0  0  0
   -2.8105   -5.5873   -3.4774 O   0  0  0  0  0  0  0  0  0  0  0  0
   -3.5181   -3.2874   -2.6944 O   0  0  0  0  0  0  0  0  0  0  0  0
   -1.1633   -4.0803   -2.5851 O   0  0  0  0  0  0  0  0  0  0  0  0
   -0.0260    1.1020   -2.4778 H   0  0  0  0  0  0  0  0  0  0  0  0
   -1.2823   -0.9559   -1.9842 H   0  0  0  0  0  0  0  0  0  0  0  0
    1.4263    1.2511    1.5337 H   0  0  0  0  0  0  0  0  0  0  0  0
    2.2994    4.3110    0.7685 H   0  0  0  0  0  0  0  0  0  0  0  0
    0.3584    7.9433   -0.7527 H   0  0  0  0  0  0  0  0  0  0  0  0
    2.2418    8.3412   -2.2242 H   0  0  0  0  0  0  0  0  0  0  0  0
    4.7821    5.0592   -4.4418 H   0  0  0  0  0  0  0  0  0  0  0  0
    3.8134    2.9579   -3.5973 H   0  0  0  0  0  0  0  0  0  0  0  0
    4.1438    8.3708   -3.1212 H   0  0  0  0  0  0  0  0  0  0  0  0
    4.9060    7.4637   -4.3354 H   0  0  0  0  0  0  0  0  0  0  0  0
    0.0767    8.0183    2.8261 H   0  0  0  0  0  0  0  0  0  0  0  0
   -0.5354    0.8218    3.9471 H   0  0  0  0  0  0  0  0  0  0  0  0
   -2.6565   -1.8801    0.6306 H   0  0  0  0  0  0  0  0  0  0  0  0
   -0.3769   -3.7973   -0.1605 H   0  0  0  0  0  0  0  0  0  0  0  0
   -4.3311   -6.6862   -1.7440 H   0  0  0  0  0  0  0  0  0  0  0  0
   -3.5177   -6.9558    2.4465 H   0  0  0  0  0  0  0  0  0  0  0  0
   -2.0631   -4.9692    2.3217 H   0  0  0  0  0  0  0  0  0  0  0  0
   -5.9005   -9.2345    2.6188 H   0  0  0  0  0  0  0  0  0  0  0  0
   -4.0502  -13.2184    2.2121 H   0  0  0  0  0  0  0  0  0  0  0  0
   -6.0093  -13.9453    0.9792 H   0  0  0  0  0  0  0  0  0  0  0  0
   -8.6143  -11.3980   -1.9900 H   0  0  0  0  0  0  0  0  0  0  0  0
   -7.5042   -9.1941   -1.9118 H   0  0  0  0  0  0  0  0  0  0  0  0
   -8.0116  -14.1550    0.2913 H   0  0  0  0  0  0  0  0  0  0  0  0
   -8.8122  -13.6527   -1.1168 H   0  0  0  0  0  0  0  0  0  0  0  0
   -4.3909   -9.3723    5.4654 H   0  0  0  0  0  0  0  0  0  0  0  0
   -0.6956   -4.7673   -3.1049 H   0  0  0  0  0  0  0  0  0  0  0  0
  1  2  2  0  0  0  0
  1  6  1  0  0  0  0
  1 57  1  0  0  0  0
  2  3  1  0  0  0  0
  2 58  1  0  0  0  0
  3  4  2  0  0  0  0
  3 28  1  0  0  0  0
  4  5  1  0  0  0  0
  4 24  1  0  0  0  0
  5  6  2  0  0  0  0
  5 59  1  0  0  0  0
  6  7  1  0  0  0  0
  7  8  2  3  0  0  0
  8  9  1  0  0  0  0
  9 10  2  0  0  0  0
  9 18  1  0  0  0  0
 10 11  1  0  0  0  0
 10 15  1  0  0  0  0
 11 12  2  0  0  0  0
 11 60  1  0  0  0  0
 12 13  1  0  0  0  0
 12 20  1  0  0  0  0
 13 14  2  0  0  0  0
 13 61  1  0  0  0  0
 14 15  1  0  0  0  0
 14 62  1  0  0  0  0
 15 16  2  0  0  0  0
 16 17  1  0  0  0  0
 16 19  1  0  0  0  0
 17 18  2  0  0  0  0
 17 63  1  0  0  0  0
 18 64  1  0  0  0  0
 19 65  1  0  0  0  0
 19 66  1  0  0  0  0
 20 21  2  0  0  0  0
 20 22  2  0  0  0  0
 20 23  1  0  0  0  0
 23 67  1  0  0  0  0
 24 25  2  0  0  0  0
 24 26  2  0  0  0  0
 24 27  1  0  0  0  0
 27 68  1  0  0  0  0
 28 29  2  3  0  0  0
 28 69  1  0  0  0  0
 29 30  1  0  0  0  0
 29 70  1  0  0  0  0
 30 31  2  0  0  0  0
 30 35  1  0  0  0  0
 31 32  1  0  0  0  0
 31 53  1  0  0  0  0
 32 33  2  0  0  0  0
 32 71  1  0  0  0  0
 33 34  1  0  0  0  0
 33 36  1  0  0  0  0
 34 35  2  0  0  0  0
 34 72  1  0  0  0  0
 35 73  1  0  0  0  0
 36 37  2  3  0  0  0
 37 38  1  0  0  0  0
 38 39  2  0  0  0  0
 38 47  1  0  0  0  0
 39 40  1  0  0  0  0
 39 44  1  0  0  0  0
 40 41  2  0  0  0  0
 40 74  1  0  0  0  0
 41 42  1  0  0  0  0
 41 49  1  0  0  0  0
 42 43  2  0  0  0  0
 42 75  1  0  0  0  0
 43 44  1  0  0  0  0
 43 76  1  0  0  0  0
 44 45  2  0  0  0  0
 45 46  1  0  0  0  0
 45 48  1  0  0  0  0
 46 47  2  0  0  0  0
 46 77  1  0  0  0  0
 47 78  1  0  0  0  0
 48 79  1  0  0  0  0
 48 80  1  0  0  0  0
 49 50  2  0  0  0  0
 49 51  2  0  0  0  0
 49 52  1  0  0  0  0
 52 81  1  0  0  0  0
 53 54  2  0  0  0  0
 53 55  2  0  0  0  0
 53 56  1  0  0  0  0
 56 82  1  0  0  0  0
M  END
