
 OpenBabel10072620003D

 99103  0  0  1  0  0  0  0  0999 V2000
    4.1907    2.3315    0.0030 C   0  0  0  0  0  0  0  0  0  0  0  0
    4.5132    0.8585   -0.3278 C   0  0  0  0  0  0  0  0  0  0  0  0
    5.7748    0.8085   -1.2116 C   0  0  0  0  0  0  0  0  0  0  0  0
    4.8430    0.1267    0.9944 C   0  0  0  0  0  0  0  0  0  0  0  0
    3.2634    0.1850   -0.9771 C   0  0  1  0  0  0  0  0  0  0  0  0
    2.7234    0.9091   -2.2383 C   0  0  0  0  0  0  0  0  0  0  0  0
    3.4754    1.3247   -3.1257 O   0  0  0  0  0  0  0  0  0  0  0  0
    1.3623    0.9599   -2.4386 N   0  0  0  0  0  0  0  0  0  0  0  0
    0.3124    0.4994   -1.5335 C   0  0  0  0  0  0  0  0  0  0  0  0
   -0.9980    0.8492   -2.2511 C   0  0  1  0  0  0  0  0  0  0  0  0
   -0.5909    0.6903   -3.7195 C   0  0  0  0  0  0  0  0  0  0  0  0
    0.7963    1.3339   -3.7405 C   0  0  1  0  0  0  0  0  0  0  0  0
    0.7047    2.8678   -3.8824 C   0  0  0  0  0  0  0  0  0  0  0  0
   -0.3585    3.4739   -4.0338 O   0  0  0  0  0  0  0  0  0  0  0  0
    1.8968    3.5511   -3.8399 N   0  0  0  0  0  0  0  0  0  0  0  0
    1.9599    5.0554   -3.8850 C   0  0  3  0  0  0  0  0  0  0  0  0
    1.4967    5.6226   -5.2704 C   0  0  0  0  0  0  0  0  0  0  0  0
    2.6899    6.5892   -5.2292 C   0  0  0  0  0  0  0  0  0  0  0  0
    3.3925    5.6323   -4.2334 C   0  0  3  0  0  0  0  0  0  0  0  0
    4.3723    4.6987   -4.8673 C   0  0  0  0  0  0  0  0  0  0  0  0
    5.3677    4.1782   -4.1404 C   0  0  0  0  0  0  0  0  0  0  0  0
    1.2650    5.7446   -2.6042 C   0  0  0  0  0  0  0  0  0  0  0  0
    1.8212    6.4038   -1.7308 O   0  0  0  0  0  0  0  0  0  0  0  0
   -0.0845    5.5424   -2.5378 O   0  0  0  0  0  0  0  0  0  0  0  0
   -2.0728   -0.0309   -1.9407 O   0  0  0  0  0  0  0  0  0  0  0  0
   -2.5681    0.1118   -0.6633 C   0  0  0  0  0  0  0  0  0  0  0  0
   -2.8252    1.3590   -0.0964 C   0  0  0  0  0  0  0  0  0  0  0  0
   -3.3095    1.4251    1.2035 C   0  0  0  0  0  0  0  0  0  0  0  0
   -3.5752    0.3041    1.9155 N   0  0  0  0  0  0  0  0  0  0  0  0
   -3.3673   -0.9009    1.3582 C   0  0  0  0  0  0  0  0  0  0  0  0
   -2.8635   -1.0587    0.0554 C   0  0  0  0  0  0  0  0  0  0  0  0
   -2.6703   -2.3575   -0.4614 C   0  0  0  0  0  0  0  0  0  0  0  0
   -2.9665   -3.4848    0.3049 C   0  0  0  0  0  0  0  0  0  0  0  0
   -3.4664   -3.3263    1.5925 C   0  0  0  0  0  0  0  0  0  0  0  0
   -3.6610   -2.0370    2.0973 C   0  0  0  0  0  0  0  0  0  0  0  0
   -3.8062   -4.3347    2.4519 O   0  0  0  0  0  0  0  0  0  0  0  0
   -3.5141   -5.6603    2.0288 C   0  0  0  0  0  0  0  0  0  0  0  0
   -3.5803    2.7064    1.8908 C   0  0  0  0  0  0  0  0  0  0  0  0
   -4.6550    2.8271    2.7919 C   0  0  0  0  0  0  0  0  0  0  0  0
   -4.9354    4.0346    3.4409 C   0  0  0  0  0  0  0  0  0  0  0  0
   -4.1399    5.1518    3.2055 C   0  0  0  0  0  0  0  0  0  0  0  0
   -3.0579    5.0575    2.3350 C   0  0  0  0  0  0  0  0  0  0  0  0
   -2.7817    3.8481    1.6863 C   0  0  0  0  0  0  0  0  0  0  0  0
    3.5360   -1.1752   -1.4369 N   0  0  0  0  0  0  0  0  0  0  0  0
    2.7763   -2.2391   -1.0641 C   0  0  0  0  0  0  0  0  0  0  0  0
    1.9759   -2.2326   -0.1443 O   0  0  0  0  0  0  0  0  0  0  0  0
    3.0235   -3.2714   -1.9011 O   0  0  0  0  0  0  0  0  0  0  0  0
    2.3039   -4.5234   -1.7488 C   0  0  0  0  0  0  0  0  0  0  0  0
    0.7862   -4.3271   -1.8672 C   0  0  0  0  0  0  0  0  0  0  0  0
    2.7679   -5.3951   -2.9260 C   0  0  0  0  0  0  0  0  0  0  0  0
    2.6949   -5.2197   -0.4415 C   0  0  0  0  0  0  0  0  0  0  0  0
    5.0026    2.7982    0.5726 H   0  0  0  0  0  0  0  0  0  0  0  0
    3.2756    2.4123    0.6014 H   0  0  0  0  0  0  0  0  0  0  0  0
    4.0493    2.9257   -0.9070 H   0  0  0  0  0  0  0  0  0  0  0  0
    6.6444    1.2019   -0.6721 H   0  0  0  0  0  0  0  0  0  0  0  0
    5.6701    1.4105   -2.1178 H   0  0  0  0  0  0  0  0  0  0  0  0
    6.0200   -0.2159   -1.5111 H   0  0  0  0  0  0  0  0  0  0  0  0
    5.6671    0.6188    1.5247 H   0  0  0  0  0  0  0  0  0  0  0  0
    5.1460   -0.9108    0.8113 H   0  0  0  0  0  0  0  0  0  0  0  0
    3.9793    0.1107    1.6688 H   0  0  0  0  0  0  0  0  0  0  0  0
    2.4724    0.1540   -0.2202 H   0  0  0  0  0  0  0  0  0  0  0  0
    0.3989    0.9984   -0.5634 H   0  0  0  0  0  0  0  0  0  0  0  0
    0.4133   -0.5802   -1.3884 H   0  0  0  0  0  0  0  0  0  0  0  0
   -1.2668    1.8993   -2.0965 H   0  0  0  0  0  0  0  0  0  0  0  0
   -1.3158    1.1493   -4.3989 H   0  0  0  0  0  0  0  0  0  0  0  0
   -0.5296   -0.3744   -3.9802 H   0  0  0  0  0  0  0  0  0  0  0  0
    1.4077    0.9439   -4.5616 H   0  0  0  0  0  0  0  0  0  0  0  0
    2.7513    3.0042   -3.6945 H   0  0  0  0  0  0  0  0  0  0  0  0
    0.5155    6.1062   -5.2885 H   0  0  0  0  0  0  0  0  0  0  0  0
    1.5391    4.9046   -6.0985 H   0  0  0  0  0  0  0  0  0  0  0  0
    2.4471    7.5645   -4.7902 H   0  0  0  0  0  0  0  0  0  0  0  0
    3.1853    6.7645   -6.1888 H   0  0  0  0  0  0  0  0  0  0  0  0
    3.8613    6.1916   -3.4124 H   0  0  0  0  0  0  0  0  0  0  0  0
    4.2706    4.4447   -5.9190 H   0  0  0  0  0  0  0  0  0  0  0  0
    5.4960    4.4094   -3.0870 H   0  0  0  0  0  0  0  0  0  0  0  0
    6.0848    3.4970   -4.5890 H   0  0  0  0  0  0  0  0  0  0  0  0
   -0.3977    4.9344   -3.2528 H   0  0  0  0  0  0  0  0  0  0  0  0
   -2.6885    2.2747   -0.6573 H   0  0  0  0  0  0  0  0  0  0  0  0
   -2.2861   -2.4945   -1.4699 H   0  0  0  0  0  0  0  0  0  0  0  0
   -2.8013   -4.4629   -0.1335 H   0  0  0  0  0  0  0  0  0  0  0  0
   -4.0534   -1.9136    3.1043 H   0  0  0  0  0  0  0  0  0  0  0  0
   -3.8018   -6.3433    2.8341 H   0  0  0  0  0  0  0  0  0  0  0  0
   -2.4413   -5.7879    1.8484 H   0  0  0  0  0  0  0  0  0  0  0  0
   -4.0990   -5.9270    1.1425 H   0  0  0  0  0  0  0  0  0  0  0  0
   -5.2884    1.9641    2.9928 H   0  0  0  0  0  0  0  0  0  0  0  0
   -5.7741    4.0967    4.1301 H   0  0  0  0  0  0  0  0  0  0  0  0
   -4.3571    6.0910    3.7076 H   0  0  0  0  0  0  0  0  0  0  0  0
   -2.4224    5.9234    2.1631 H   0  0  0  0  0  0  0  0  0  0  0  0
   -1.9151    3.8107    1.0299 H   0  0  0  0  0  0  0  0  0  0  0  0
    4.0666   -1.3043   -2.2890 H   0  0  0  0  0  0  0  0  0  0  0  0
    0.5370   -3.7299   -2.7515 H   0  0  0  0  0  0  0  0  0  0  0  0
    0.3687   -3.7994   -1.0055 H   0  0  0  0  0  0  0  0  0  0  0  0
    0.2642   -5.2873   -1.9374 H   0  0  0  0  0  0  0  0  0  0  0  0
    2.5315   -4.9159   -3.8835 H   0  0  0  0  0  0  0  0  0  0  0  0
    2.2976   -6.3844   -2.9086 H   0  0  0  0  0  0  0  0  0  0  0  0
    3.8554   -5.5300   -2.9091 H   0  0  0  0  0  0  0  0  0  0  0  0
    2.3989   -4.6364    0.4351 H   0  0  0  0  0  0  0  0  0  0  0  0
    3.7822   -5.3431   -0.3822 H   0  0  0  0  0  0  0  0  0  0  0  0
    2.2293   -6.2078   -0.3602 H   0  0  0  0  0  0  0  0  0  0  0  0
  1  2  1  0  0  0  0
  1 52  1  0  0  0  0
  1 53  1  0  0  0  0
  1 54  1  0  0  0  0
  2  3  1  0  0  0  0
  2  4  1  0  0  0  0
  2  5  1  0  0  0  0
  3 55  1  0  0  0  0
  3 56  1  0  0  0  0
  3 57  1  0  0  0  0
  4 58  1  0  0  0  0
  4 59  1  0  0  0  0
  4 60  1  0  0  0  0
  5  6  1  0  0  0  0
  5 44  1  0  0  0  0
  5 61  1  1  0  0  0
  6  7  2  0  0  0  0
  6  8  1  0  0  0  0
  8  9  1  0  0  0  0
  8 12  1  0  0  0  0
  9 10  1  0  0  0  0
  9 62  1  0  0  0  0
  9 63  1  0  0  0  0
 10 11  1  0  0  0  0
 10 25  1  0  0  0  0
 10 64  1  1  0  0  0
 11 12  1  0  0  0  0
 11 65  1  0  0  0  0
 11 66  1  0  0  0  0
 12 13  1  0  0  0  0
 12 67  1  6  0  0  0
 13 14  2  0  0  0  0
 13 15  1  0  0  0  0
 15 16  1  0  0  0  0
 15 68  1  0  0  0  0
 16 17  1  0  0  0  0
 16 19  1  0  0  0  0
 16 22  1  0  0  0  0
 17 18  1  0  0  0  0
 17 69  1  0  0  0  0
 17 70  1  0  0  0  0
 18 19  1  0  0  0  0
 18 71  1  0  0  0  0
 18 72  1  0  0  0  0
 19 20  1  0  0  0  0
 19 73  1  0  0  0  0
 20 21  2  0  0  0  0
 20 74  1  0  0  0  0
 21 75  1  0  0  0  0
 21 76  1  0  0  0  0
 22 23  2  0  0  0  0
 22 24  1  0  0  0  0
 24 77  1  0  0  0  0
 25 26  1  0  0  0  0
 26 27  2  0  0  0  0
 26 31  1  0  0  0  0
 27 28  1  0  0  0  0
 27 78  1  0  0  0  0
 28 29  2  0  0  0  0
 28 38  1  0  0  0  0
 29 30  1  0  0  0  0
 30 31  2  0  0  0  0
 30 35  1  0  0  0  0
 31 32  1  0  0  0  0
 32 33  2  0  0  0  0
 32 79  1  0  0  0  0
 33 34  1  0  0  0  0
 33 80  1  0  0  0  0
 34 35  2  0  0  0  0
 34 36  1  0  0  0  0
 35 81  1  0  0  0  0
 36 37  1  0  0  0  0
 37 82  1  0  0  0  0
 37 83  1  0  0  0  0
 37 84  1  0  0  0  0
 38 39  2  0  0  0  0
 38 43  1  0  0  0  0
 39 40  1  0  0  0  0
 39 85  1  0  0  0  0
 40 41  2  0  0  0  0
 40 86  1  0  0  0  0
 41 42  1  0  0  0  0
 41 87  1  0  0  0  0
 42 43  2  0  0  0  0
 42 88  1  0  0  0  0
 43 89  1  0  0  0  0
 44 45  1  0  0  0  0
 44 90  1  0  0  0  0
 45 46  2  0  0  0  0
 45 47  1  0  0  0  0
 47 48  1  0  0  0  0
 48 49  1  0  0  0  0
 48 50  1  0  0  0  0
 48 51  1  0  0  0  0
 49 91  1  0  0  0  0
 49 92  1  0  0  0  0
 49 93  1  0  0  0  0
 50 94  1  0  0  0  0
 50 95  1  0  0  0  0
 50 96  1  0  0  0  0
 51 97  1  0  0  0  0
 51 98  1  0  0  0  0
 51 99  1  0  0  0  0
M  END
