
 OpenBabel10072616333D

 43 45  0  0  0  0  0  0  0  0999 V2000
   -6.8101    5.9539   -0.8720 C   0  0  0  0  0  0  0  0  0  0  0  0
   -5.9142    5.7643    0.0896 C   0  0  0  0  0  0  0  0  0  0  0  0
   -5.5952    4.4951    0.5080 C   0  0  0  0  0  0  0  0  0  0  0  0
   -6.1207    3.3967   -0.1141 C   0  0  0  0  0  0  0  0  0  0  0  0
   -7.0613    3.6246   -1.0127 C   0  0  0  0  0  0  0  0  0  0  0  0
   -7.3335    4.8890   -1.5865 C   0  0  0  0  0  0  0  0  0  0  0  0
   -5.6480    1.9893    0.2113 C   0  0  0  0  0  0  0  0  0  0  0  0
   -5.2195    1.7162    1.3762 O   0  0  0  0  0  0  0  0  0  0  0  0
   -5.6863    0.9439   -0.8215 N   0  0  0  0  0  0  0  0  0  0  0  0
   -5.2291   -0.4173   -0.5069 C   0  0  0  0  0  0  0  0  0  0  0  0
   -3.9482   -0.6275   -0.0997 C   0  0  0  0  0  0  0  0  0  0  0  0
   -3.3945   -2.2757    0.2812 Cl  0  0  0  0  0  0  0  0  0  0  0  0
   -2.8259    0.7458    0.0521 Cl  0  0  0  0  0  0  0  0  0  0  0  0
   -6.3829   -1.8291   -0.6630 P   0  0  0  0  0  0  0  0  0  0  0  0
   -7.5708   -0.8957   -0.3240 O   0  0  0  0  0  0  0  0  0  0  0  0
   -5.8671   -2.0582   -2.4038 C   0  0  0  0  0  0  0  0  0  0  0  0
   -4.8473   -2.8604   -2.6860 C   0  0  0  0  0  0  0  0  0  0  0  0
   -4.5213   -3.1450   -3.9901 C   0  0  0  0  0  0  0  0  0  0  0  0
   -5.1768   -2.5407   -5.0267 C   0  0  0  0  0  0  0  0  0  0  0  0
   -6.2299   -1.8097   -4.7093 C   0  0  0  0  0  0  0  0  0  0  0  0
   -6.5328   -1.3644   -3.4009 C   0  0  0  0  0  0  0  0  0  0  0  0
   -7.5367   -3.2409   -0.8191 C   0  0  0  0  0  0  0  0  0  0  0  0
   -7.2011   -4.4200   -0.3090 C   0  0  0  0  0  0  0  0  0  0  0  0
   -8.1083   -5.4514   -0.2755 C   0  0  0  0  0  0  0  0  0  0  0  0
   -9.3438   -5.3200   -0.8463 C   0  0  0  0  0  0  0  0  0  0  0  0
   -9.6671   -4.1137   -1.2756 C   0  0  0  0  0  0  0  0  0  0  0  0
   -8.7461   -3.0571   -1.4689 C   0  0  0  0  0  0  0  0  0  0  0  0
   -7.1224    6.9128   -1.0911 H   0  0  0  0  0  0  0  0  0  0  0  0
   -5.4534    6.5777    0.5267 H   0  0  0  0  0  0  0  0  0  0  0  0
   -4.9495    4.3689    1.3031 H   0  0  0  0  0  0  0  0  0  0  0  0
   -7.6378    2.8247   -1.3177 H   0  0  0  0  0  0  0  0  0  0  0  0
   -7.8731    5.0070   -2.4582 H   0  0  0  0  0  0  0  0  0  0  0  0
   -6.0182    1.1554   -1.7239 H   0  0  0  0  0  0  0  0  0  0  0  0
   -4.2945   -3.2740   -1.9188 H   0  0  0  0  0  0  0  0  0  0  0  0
   -3.7708   -3.8246   -4.1900 H   0  0  0  0  0  0  0  0  0  0  0  0
   -4.8654   -2.6500   -6.0045 H   0  0  0  0  0  0  0  0  0  0  0  0
   -6.8768   -1.5447   -5.4685 H   0  0  0  0  0  0  0  0  0  0  0  0
   -7.1901   -0.5928   -3.2070 H   0  0  0  0  0  0  0  0  0  0  0  0
   -6.2502   -4.5631    0.0657 H   0  0  0  0  0  0  0  0  0  0  0  0
   -7.8535   -6.3380    0.1871 H   0  0  0  0  0  0  0  0  0  0  0  0
   -9.9889   -6.1204   -0.9367 H   0  0  0  0  0  0  0  0  0  0  0  0
  -10.6607   -3.9288   -1.4846 H   0  0  0  0  0  0  0  0  0  0  0  0
   -8.9563   -2.2250   -2.0420 H   0  0  0  0  0  0  0  0  0  0  0  0
  1  2  2  0  0  0  0
  1  6  1  0  0  0  0
  1 28  1  0  0  0  0
  2  3  1  0  0  0  0
  2 29  1  0  0  0  0
  3  4  2  0  0  0  0
  3 30  1  0  0  0  0
  4  5  1  0  0  0  0
  4  7  1  0  0  0  0
  5  6  2  0  0  0  0
  5 31  1  0  0  0  0
  6 32  1  0  0  0  0
  7  8  2  0  0  0  0
  7  9  1  0  0  0  0
  9 10  1  0  0  0  0
  9 33  1  0  0  0  0
 10 11  2  0  0  0  0
 10 14  1  0  0  0  0
 11 12  1  0  0  0  0
 11 13  1  0  0  0  0
 14 15  2  0  0  0  0
 14 16  1  0  0  0  0
 14 22  1  0  0  0  0
 16 17  2  0  0  0  0
 16 21  1  0  0  0  0
 17 18  1  0  0  0  0
 17 34  1  0  0  0  0
 18 19  2  0  0  0  0
 18 35  1  0  0  0  0
 19 20  1  0  0  0  0
 19 36  1  0  0  0  0
 20 21  2  0  0  0  0
 20 37  1  0  0  0  0
 21 38  1  0  0  0  0
 22 23  2  0  0  0  0
 22 27  1  0  0  0  0
 23 24  1  0  0  0  0
 23 39  1  0  0  0  0
 24 25  2  0  0  0  0
 24 40  1  0  0  0  0
 25 26  1  0  0  0  0
 25 41  1  0  0  0  0
 26 27  2  0  0  0  0
 26 42  1  0  0  0  0
 27 43  1  0  0  0  0
M  END
