
 OpenBabel10072619483D

 30 31  0  0  0  0  0  0  0  0999 V2000
    1.7925    0.8694    1.6772 C   0  0  0  0  0  0  0  0  0  0  0  0
    0.6089    0.1897    2.0011 C   0  0  0  0  0  0  0  0  0  0  0  0
    0.2912   -1.0052    1.3615 C   0  0  0  0  0  0  0  0  0  0  0  0
    1.1471   -1.5298    0.4009 C   0  0  0  0  0  0  0  0  0  0  0  0
    2.3270   -0.8514    0.0841 C   0  0  0  0  0  0  0  0  0  0  0  0
    2.6625    0.3574    0.7152 C   0  0  0  0  0  0  0  0  0  0  0  0
    3.9022    0.9158    0.3446 N   0  0  0  0  0  0  0  0  0  0  0  0
    4.5207    2.1160    0.5996 C   0  0  0  0  0  0  0  0  0  0  0  0
    3.9056    3.5034    1.2953 S   0  0  0  0  0  0  0  0  0  0  0  0
    5.8549    2.1689    0.2060 N   0  0  0  0  0  0  0  0  0  0  0  0
    6.6448    1.1658   -0.3404 C   0  0  0  0  0  0  0  0  0  0  0  0
    6.1708    0.0957   -0.7236 O   0  0  0  0  0  0  0  0  0  0  0  0
    8.1058    1.4244   -0.5351 C   0  0  0  0  0  0  0  0  0  0  0  0
    8.8797    2.3621    0.1670 C   0  0  0  0  0  0  0  0  0  0  0  0
   10.2501    2.4958   -0.1056 C   0  0  0  0  0  0  0  0  0  0  0  0
   10.8585    1.6909   -1.0648 C   0  0  0  0  0  0  0  0  0  0  0  0
   10.1136    0.7448   -1.7571 C   0  0  0  0  0  0  0  0  0  0  0  0
    8.7481    0.6118   -1.4915 C   0  0  0  0  0  0  0  0  0  0  0  0
   12.5399    1.8578   -1.3825 Cl  0  0  0  0  0  0  0  0  0  0  0  0
    8.2555    3.3753    1.4202 Cl  0  0  0  0  0  0  0  0  0  0  0  0
   -1.1582   -1.8397    1.7613 Cl  0  0  0  0  0  0  0  0  0  0  0  0
    2.0084    1.7742    2.2317 H   0  0  0  0  0  0  0  0  0  0  0  0
   -0.0508    0.5991    2.7616 H   0  0  0  0  0  0  0  0  0  0  0  0
    0.9121   -2.4643   -0.1000 H   0  0  0  0  0  0  0  0  0  0  0  0
    2.9822   -1.2807   -0.6712 H   0  0  0  0  0  0  0  0  0  0  0  0
    4.4688    0.3044   -0.2467 H   0  0  0  0  0  0  0  0  0  0  0  0
    6.2965    3.0476    0.4504 H   0  0  0  0  0  0  0  0  0  0  0  0
   10.8476    3.2252    0.4374 H   0  0  0  0  0  0  0  0  0  0  0  0
   10.5830    0.1068   -2.5024 H   0  0  0  0  0  0  0  0  0  0  0  0
    8.1832   -0.1402   -2.0434 H   0  0  0  0  0  0  0  0  0  0  0  0
  1  2  2  0  0  0  0
  1  6  1  0  0  0  0
  1 22  1  0  0  0  0
  2  3  1  0  0  0  0
  2 23  1  0  0  0  0
  3  4  2  0  0  0  0
  3 21  1  0  0  0  0
  4  5  1  0  0  0  0
  4 24  1  0  0  0  0
  5  6  2  0  0  0  0
  5 25  1  0  0  0  0
  6  7  1  0  0  0  0
  7  8  1  0  0  0  0
  7 26  1  0  0  0  0
  8  9  2  0  0  0  0
  8 10  1  0  0  0  0
 10 11  1  0  0  0  0
 10 27  1  0  0  0  0
 11 12  2  0  0  0  0
 11 13  1  0  0  0  0
 13 14  2  0  0  0  0
 13 18  1  0  0  0  0
 14 15  1  0  0  0  0
 14 20  1  0  0  0  0
 15 16  2  0  0  0  0
 15 28  1  0  0  0  0
 16 17  1  0  0  0  0
 16 19  1  0  0  0  0
 17 18  2  0  0  0  0
 17 29  1  0  0  0  0
 18 30  1  0  0  0  0
M  END
