
 OpenBabel10072620003D

 52 53  0  0  0  0  0  0  0  0999 V2000
    3.5329    0.4514    2.9899 C   0  0  0  0  0  0  0  0  0  0  0  0
    4.4956    0.0524    1.8861 C   0  0  0  0  0  0  0  0  0  0  0  0
    5.0326    1.2296    1.2616 O   0  0  0  0  0  0  0  0  0  0  0  0
    4.2964    1.7598    0.2534 C   0  0  0  0  0  0  0  0  0  0  0  0
    3.2580    1.2850   -0.1867 O   0  0  0  0  0  0  0  0  0  0  0  0
    4.8916    3.0371   -0.2145 C   0  0  0  0  0  0  0  0  0  0  0  0
    4.1478    3.7814   -1.0578 C   0  0  0  0  0  0  0  0  0  0  0  0
    4.5242    5.1076   -1.5587 C   0  0  0  0  0  0  0  0  0  0  0  0
    5.5675    5.2786   -2.4804 C   0  0  0  0  0  0  0  0  0  0  0  0
    5.9367    6.5603   -2.9065 C   0  0  0  0  0  0  0  0  0  0  0  0
    5.2586    7.6766   -2.3808 C   0  0  0  0  0  0  0  0  0  0  0  0
    4.1845    7.5023   -1.5027 C   0  0  0  0  0  0  0  0  0  0  0  0
    3.8224    6.2216   -1.0919 C   0  0  0  0  0  0  0  0  0  0  0  0
    5.6711    8.9217   -2.7924 O   0  0  0  0  0  0  0  0  0  0  0  0
    5.6524    9.9161   -1.7654 C   0  0  0  0  0  0  0  0  0  0  0  0
    6.5827   11.0908   -2.0831 C   0  0  0  0  0  0  0  0  0  0  0  0
    6.6171   12.0706   -1.3413 O   0  0  0  0  0  0  0  0  0  0  0  0
    7.3241   10.8954   -3.2328 N   0  0  0  0  0  0  0  0  0  0  0  0
    8.2734   11.7580   -3.8090 C   0  0  0  0  0  0  0  0  0  0  0  0
    8.6257   12.9997   -3.2789 C   0  0  0  0  0  0  0  0  0  0  0  0
    9.5860   13.8019   -3.9119 C   0  0  0  0  0  0  0  0  0  0  0  0
   10.2043   13.3690   -5.0839 C   0  0  0  0  0  0  0  0  0  0  0  0
    9.8499   12.1303   -5.6188 C   0  0  0  0  0  0  0  0  0  0  0  0
    8.8941   11.3298   -4.9858 C   0  0  0  0  0  0  0  0  0  0  0  0
   11.1490   14.0571   -5.7941 O   0  0  0  0  0  0  0  0  0  0  0  0
   11.5935   15.2880   -5.2346 C   0  0  0  0  0  0  0  0  0  0  0  0
    6.9458    6.8298   -3.7981 O   0  0  0  0  0  0  0  0  0  0  0  0
    7.5718    5.7214   -4.4341 C   0  0  0  0  0  0  0  0  0  0  0  0
    6.1629    3.4475    0.2742 C   0  0  0  0  0  0  0  0  0  0  0  0
    7.2081    3.7903    0.6447 N   0  0  0  0  0  0  0  0  0  0  0  0
    3.1579   -0.4324    3.5129 H   0  0  0  0  0  0  0  0  0  0  0  0
    2.6798    1.0108    2.5917 H   0  0  0  0  0  0  0  0  0  0  0  0
    4.0324    1.1053    3.7130 H   0  0  0  0  0  0  0  0  0  0  0  0
    4.0199   -0.6096    1.1528 H   0  0  0  0  0  0  0  0  0  0  0  0
    5.3388   -0.4972    2.3179 H   0  0  0  0  0  0  0  0  0  0  0  0
    3.1646    3.4402   -1.3805 H   0  0  0  0  0  0  0  0  0  0  0  0
    6.0871    4.4007   -2.8494 H   0  0  0  0  0  0  0  0  0  0  0  0
    3.6123    8.3482   -1.1316 H   0  0  0  0  0  0  0  0  0  0  0  0
    2.9949    6.1080   -0.3959 H   0  0  0  0  0  0  0  0  0  0  0  0
    5.9855    9.4999   -0.8061 H   0  0  0  0  0  0  0  0  0  0  0  0
    4.6397   10.3258   -1.6769 H   0  0  0  0  0  0  0  0  0  0  0  0
    7.1512   10.0086   -3.7037 H   0  0  0  0  0  0  0  0  0  0  0  0
    8.1710   13.3788   -2.3690 H   0  0  0  0  0  0  0  0  0  0  0  0
    9.8193   14.7601   -3.4586 H   0  0  0  0  0  0  0  0  0  0  0  0
   10.3225   11.7847   -6.5351 H   0  0  0  0  0  0  0  0  0  0  0  0
    8.6456   10.3699   -5.4293 H   0  0  0  0  0  0  0  0  0  0  0  0
   12.3535   15.7041   -5.9029 H   0  0  0  0  0  0  0  0  0  0  0  0
   12.0605   15.1300   -4.2561 H   0  0  0  0  0  0  0  0  0  0  0  0
   10.7738   16.0121   -5.1710 H   0  0  0  0  0  0  0  0  0  0  0  0
    8.2717    6.1134   -5.1776 H   0  0  0  0  0  0  0  0  0  0  0  0
    6.8456    5.0996   -4.9681 H   0  0  0  0  0  0  0  0  0  0  0  0
    8.1471    5.1291   -3.7157 H   0  0  0  0  0  0  0  0  0  0  0  0
  1  2  1  0  0  0  0
  1 31  1  0  0  0  0
  1 32  1  0  0  0  0
  1 33  1  0  0  0  0
  2  3  1  0  0  0  0
  2 34  1  0  0  0  0
  2 35  1  0  0  0  0
  3  4  1  0  0  0  0
  4  5  2  0  0  0  0
  4  6  1  0  0  0  0
  6  7  2  0  0  0  0
  6 29  1  0  0  0  0
  7  8  1  0  0  0  0
  7 36  1  0  0  0  0
  8  9  2  0  0  0  0
  8 13  1  0  0  0  0
  9 10  1  0  0  0  0
  9 37  1  0  0  0  0
 10 11  2  0  0  0  0
 10 27  1  0  0  0  0
 11 12  1  0  0  0  0
 11 14  1  0  0  0  0
 12 13  2  0  0  0  0
 12 38  1  0  0  0  0
 13 39  1  0  0  0  0
 14 15  1  0  0  0  0
 15 16  1  0  0  0  0
 15 40  1  0  0  0  0
 15 41  1  0  0  0  0
 16 17  2  0  0  0  0
 16 18  1  0  0  0  0
 18 19  1  0  0  0  0
 18 42  1  0  0  0  0
 19 20  2  0  0  0  0
 19 24  1  0  0  0  0
 20 21  1  0  0  0  0
 20 43  1  0  0  0  0
 21 22  2  0  0  0  0
 21 44  1  0  0  0  0
 22 23  1  0  0  0  0
 22 25  1  0  0  0  0
 23 24  2  0  0  0  0
 23 45  1  0  0  0  0
 24 46  1  0  0  0  0
 25 26  1  0  0  0  0
 26 47  1  0  0  0  0
 26 48  1  0  0  0  0
 26 49  1  0  0  0  0
 27 28  1  0  0  0  0
 28 50  1  0  0  0  0
 28 51  1  0  0  0  0
 28 52  1  0  0  0  0
 29 30  3  0  0  0  0
M  END
