
 OpenBabel10072620223D

 34 36  0  0  0  0  0  0  0  0999 V2000
    0.9287   -0.0847    2.6151 C   0  0  0  0  0  0  0  0  0  0  0  0
    0.4347    1.1071    2.0698 C   0  0  0  0  0  0  0  0  0  0  0  0
   -0.8630    1.5391    2.3627 C   0  0  0  0  0  0  0  0  0  0  0  0
   -1.6575    0.7626    3.2131 C   0  0  0  0  0  0  0  0  0  0  0  0
   -1.1553   -0.4201    3.7508 C   0  0  0  0  0  0  0  0  0  0  0  0
    0.1324   -0.8506    3.4610 C   0  0  0  0  0  0  0  0  0  0  0  0
   -1.9338   -1.1628    4.5475 F   0  0  0  0  0  0  0  0  0  0  0  0
   -1.4433    2.7058    1.8241 N   0  0  0  0  0  0  0  0  0  0  0  0
   -0.8657    3.6290    0.9815 C   0  0  0  0  0  0  0  0  0  0  0  0
    0.2998    3.6722    0.6287 O   0  0  0  0  0  0  0  0  0  0  0  0
   -1.7930    4.5487    0.5618 N   0  0  0  0  0  0  0  0  0  0  0  0
   -1.4608    5.5437   -0.4520 C   0  0  0  0  0  0  0  0  0  0  0  0
   -2.6311    6.4305   -0.4556 O   0  0  0  0  0  0  0  0  0  0  0  0
   -3.1040    6.2787   -1.7216 C   0  0  0  0  0  0  0  0  0  0  0  0
   -4.1924    6.9279   -2.2642 C   0  0  0  0  0  0  0  0  0  0  0  0
   -4.5377    6.6267   -3.5885 C   0  0  0  0  0  0  0  0  0  0  0  0
   -3.7895    5.6825   -4.3260 C   0  0  0  0  0  0  0  0  0  0  0  0
   -2.6935    5.0382   -3.7410 C   0  0  0  0  0  0  0  0  0  0  0  0
   -2.3752    5.3640   -2.4409 C   0  0  0  0  0  0  0  0  0  0  0  0
   -1.3531    4.8346   -1.7209 O   0  0  0  0  0  0  0  0  0  0  0  0
   -4.1714    5.2770   -5.9625 Cl  0  0  0  0  0  0  0  0  0  0  0  0
   -5.9037    7.4419   -4.2643 Cl  0  0  0  0  0  0  0  0  0  0  0  0
   -0.1723    6.4225   -0.2011 C   0  0  0  0  0  0  0  0  0  0  0  0
   -0.0079    6.7127    1.1140 F   0  0  0  0  0  0  0  0  0  0  0  0
    0.9719    5.8594   -0.6502 F   0  0  0  0  0  0  0  0  0  0  0  0
   -0.2775    7.6213   -0.8424 F   0  0  0  0  0  0  0  0  0  0  0  0
    1.9382   -0.4088    2.3729 H   0  0  0  0  0  0  0  0  0  0  0  0
    1.0891    1.6730    1.4131 H   0  0  0  0  0  0  0  0  0  0  0  0
   -2.6738    1.0478    3.4674 H   0  0  0  0  0  0  0  0  0  0  0  0
    0.5025   -1.7775    3.8872 H   0  0  0  0  0  0  0  0  0  0  0  0
   -2.3719    2.9318    2.1508 H   0  0  0  0  0  0  0  0  0  0  0  0
   -2.7391    4.2214    0.4927 H   0  0  0  0  0  0  0  0  0  0  0  0
   -4.7606    7.6472   -1.6826 H   0  0  0  0  0  0  0  0  0  0  0  0
   -2.1082    4.3037   -4.2848 H   0  0  0  0  0  0  0  0  0  0  0  0
  1  2  2  0  0  0  0
  1  6  1  0  0  0  0
  1 27  1  0  0  0  0
  2  3  1  0  0  0  0
  2 28  1  0  0  0  0
  3  4  2  0  0  0  0
  3  8  1  0  0  0  0
  4  5  1  0  0  0  0
  4 29  1  0  0  0  0
  5  6  2  0  0  0  0
  5  7  1  0  0  0  0
  6 30  1  0  0  0  0
  8  9  1  0  0  0  0
  8 31  1  0  0  0  0
  9 10  2  0  0  0  0
  9 11  1  0  0  0  0
 11 12  1  0  0  0  0
 11 32  1  0  0  0  0
 12 13  1  0  0  0  0
 12 20  1  0  0  0  0
 12 23  1  0  0  0  0
 13 14  1  0  0  0  0
 14 15  2  0  0  0  0
 14 19  1  0  0  0  0
 15 16  1  0  0  0  0
 15 33  1  0  0  0  0
 16 17  2  0  0  0  0
 16 22  1  0  0  0  0
 17 18  1  0  0  0  0
 17 21  1  0  0  0  0
 18 19  2  0  0  0  0
 18 34  1  0  0  0  0
 19 20  1  0  0  0  0
 23 24  1  0  0  0  0
 23 25  1  0  0  0  0
 23 26  1  0  0  0  0
M  END
