
 OpenBabel10072619523D

 40 41  0  0  0  0  0  0  0  0999 V2000
    1.1970    0.3527   -0.9818 C   0  0  0  0  0  0  0  0  0  0  0  0
    2.4569    0.2071   -0.1484 C   0  0  0  0  0  0  0  0  0  0  0  0
    3.2462   -0.8162   -0.7479 O   0  0  0  0  0  0  0  0  0  0  0  0
    4.4587   -1.1225   -0.1920 C   0  0  0  0  0  0  0  0  0  0  0  0
    5.2021   -2.1405   -0.8291 C   0  0  0  0  0  0  0  0  0  0  0  0
    6.4712   -2.5426   -0.3532 C   0  0  0  0  0  0  0  0  0  0  0  0
    6.9467   -1.9093    0.7987 C   0  0  0  0  0  0  0  0  0  0  0  0
    6.2262   -0.9039    1.4374 C   0  0  0  0  0  0  0  0  0  0  0  0
    4.9860   -0.5041    0.9419 C   0  0  0  0  0  0  0  0  0  0  0  0
    8.1204   -2.2635    1.3388 F   0  0  0  0  0  0  0  0  0  0  0  0
    7.2412   -3.6290   -1.0703 C   0  0  0  0  0  0  0  0  0  0  0  0
    8.6847   -3.9189   -0.6421 C   0  0  0  0  0  0  0  0  0  0  0  0
    9.2597   -4.9618   -1.5049 N   0  0  0  0  0  0  0  0  0  0  0  0
   10.3538   -4.8719   -2.3095 C   0  0  0  0  0  0  0  0  0  0  0  0
   11.4036   -3.5739   -2.3863 S   0  0  0  0  0  0  0  0  0  0  0  0
   10.6331   -5.9047   -3.1602 N   0  0  0  0  0  0  0  0  0  0  0  0
    9.9051   -6.9781   -3.4219 N   0  3  0  0  0  0  0  0  0  0  0  0
    8.7697   -7.2148   -2.7510 N   0  0  0  0  0  0  0  0  0  0  0  0
    8.0404   -8.3052   -3.0697 C   0  0  0  0  0  0  0  0  0  0  0  0
    8.4093   -9.2031   -4.0433 C   0  0  0  0  0  0  0  0  0  0  0  0
    9.5847   -8.9647   -4.7198 C   0  0  0  0  0  0  0  0  0  0  0  0
   10.3174   -7.8341   -4.3894 C   0  0  0  0  0  0  0  0  0  0  0  0
    7.4437  -10.5653   -4.4089 Cl  0  0  0  0  0  0  0  0  0  0  0  0
    4.5190   -2.9293   -2.2275 Cl  0  0  0  0  0  0  0  0  0  0  0  0
    0.5348    1.1143   -0.5626 H   0  0  0  0  0  0  0  0  0  0  0  0
    0.6574   -0.5988   -1.0343 H   0  0  0  0  0  0  0  0  0  0  0  0
    1.4491    0.6303   -2.0106 H   0  0  0  0  0  0  0  0  0  0  0  0
    2.1844   -0.0736    0.8747 H   0  0  0  0  0  0  0  0  0  0  0  0
    3.0007    1.1579   -0.1477 H   0  0  0  0  0  0  0  0  0  0  0  0
    6.6383   -0.4353    2.3279 H   0  0  0  0  0  0  0  0  0  0  0  0
    4.4551    0.2820    1.4683 H   0  0  0  0  0  0  0  0  0  0  0  0
    7.2770   -3.3679   -2.1368 H   0  0  0  0  0  0  0  0  0  0  0  0
    6.6685   -4.5631   -0.9860 H   0  0  0  0  0  0  0  0  0  0  0  0
    8.7187   -4.3159    0.3778 H   0  0  0  0  0  0  0  0  0  0  0  0
    9.2830   -3.0061   -0.6825 H   0  0  0  0  0  0  0  0  0  0  0  0
    8.8087   -5.8628   -1.4099 H   0  0  0  0  0  0  0  0  0  0  0  0
   11.4614   -5.7457   -3.7250 H   0  0  0  0  0  0  0  0  0  0  0  0
    7.1246   -8.4379   -2.4967 H   0  0  0  0  0  0  0  0  0  0  0  0
    9.9343   -9.6383   -5.4989 H   0  0  0  0  0  0  0  0  0  0  0  0
   11.2450   -7.5968   -4.9011 H   0  0  0  0  0  0  0  0  0  0  0  0
  1  2  1  0  0  0  0
  1 25  1  0  0  0  0
  1 26  1  0  0  0  0
  1 27  1  0  0  0  0
  2  3  1  0  0  0  0
  2 28  1  0  0  0  0
  2 29  1  0  0  0  0
  3  4  1  0  0  0  0
  4  5  2  0  0  0  0
  4  9  1  0  0  0  0
  5  6  1  0  0  0  0
  5 24  1  0  0  0  0
  6  7  2  0  0  0  0
  6 11  1  0  0  0  0
  7  8  1  0  0  0  0
  7 10  1  0  0  0  0
  8  9  2  0  0  0  0
  8 30  1  0  0  0  0
  9 31  1  0  0  0  0
 11 12  1  0  0  0  0
 11 32  1  0  0  0  0
 11 33  1  0  0  0  0
 12 13  1  0  0  0  0
 12 34  1  0  0  0  0
 12 35  1  0  0  0  0
 13 14  1  0  0  0  0
 13 36  1  0  0  0  0
 14 15  2  0  0  0  0
 14 16  1  0  0  0  0
 16 17  1  0  0  0  0
 16 37  1  0  0  0  0
 17 18  2  0  0  0  0
 17 22  1  0  0  0  0
 18 19  1  0  0  0  0
 19 20  2  0  0  0  0
 19 38  1  0  0  0  0
 20 21  1  0  0  0  0
 20 23  1  0  0  0  0
 21 22  2  0  0  0  0
 21 39  1  0  0  0  0
 22 40  1  0  0  0  0
M  CHG  1  17   1
M  END
