
 OpenBabel10072619573D

 27 27  0  0  1  0  0  0  0  0999 V2000
    4.9148   -0.0623    2.0499 C   0  0  0  0  0  0  0  0  0  0  0  0
    4.0369   -0.0232    0.8301 C   0  0  0  0  0  0  0  0  0  0  0  0
    2.9760   -0.8280    0.6194 C   0  0  0  0  0  0  0  0  0  0  0  0
    2.4285   -1.8761    1.5416 C   0  0  3  0  0  0  0  0  0  0  0  0
    2.8919   -3.2826    1.1885 C   0  0  0  0  0  0  0  0  0  0  0  0
    1.7244   -4.1460    1.6247 C   0  0  3  0  0  0  0  0  0  0  0  0
    0.5432   -3.2367    1.3018 C   0  0  0  0  0  0  0  0  0  0  0  0
    0.9934   -1.8773    1.4261 O   0  0  0  0  0  0  0  0  0  0  0  0
    1.7898   -4.4950    3.0943 C   0  0  0  0  0  0  0  0  0  0  0  0
    1.9183   -5.7441    3.5602 C   0  0  0  0  0  0  0  0  0  0  0  0
    4.4365    1.0076   -0.1923 C   0  0  0  0  0  0  0  0  0  0  0  0
    4.6789   -0.8879    2.7255 H   0  0  0  0  0  0  0  0  0  0  0  0
    4.8197    0.8716    2.6131 H   0  0  0  0  0  0  0  0  0  0  0  0
    5.9628   -0.1823    1.7550 H   0  0  0  0  0  0  0  0  0  0  0  0
    2.4190   -0.7202   -0.3106 H   0  0  0  0  0  0  0  0  0  0  0  0
    2.6475   -1.6441    2.5888 H   0  0  0  0  0  0  0  0  0  0  0  0
    3.8446   -3.5397    1.6640 H   0  0  0  0  0  0  0  0  0  0  0  0
    3.0281   -3.3871    0.1038 H   0  0  0  0  0  0  0  0  0  0  0  0
    1.6692   -5.0683    1.0346 H   0  0  0  0  0  0  0  0  0  0  0  0
   -0.3247   -3.3910    1.9507 H   0  0  0  0  0  0  0  0  0  0  0  0
    0.2219   -3.3760    0.2634 H   0  0  0  0  0  0  0  0  0  0  0  0
    1.7196   -3.6766    3.8099 H   0  0  0  0  0  0  0  0  0  0  0  0
    1.9909   -6.6001    2.8964 H   0  0  0  0  0  0  0  0  0  0  0  0
    1.9560   -5.9361    4.6285 H   0  0  0  0  0  0  0  0  0  0  0  0
    4.4150    2.0088    0.2505 H   0  0  0  0  0  0  0  0  0  0  0  0
    3.7688    1.0138   -1.0601 H   0  0  0  0  0  0  0  0  0  0  0  0
    5.4505    0.8091   -0.5545 H   0  0  0  0  0  0  0  0  0  0  0  0
  1  2  1  0  0  0  0
  1 12  1  0  0  0  0
  1 13  1  0  0  0  0
  1 14  1  0  0  0  0
  2  3  2  0  0  0  0
  2 11  1  0  0  0  0
  3  4  1  0  0  0  0
  3 15  1  0  0  0  0
  4  5  1  0  0  0  0
  4  8  1  0  0  0  0
  4 16  1  0  0  0  0
  5  6  1  0  0  0  0
  5 17  1  0  0  0  0
  5 18  1  0  0  0  0
  6  7  1  0  0  0  0
  6  9  1  0  0  0  0
  6 19  1  0  0  0  0
  7  8  1  0  0  0  0
  7 20  1  0  0  0  0
  7 21  1  0  0  0  0
  9 10  2  0  0  0  0
  9 22  1  0  0  0  0
 10 23  1  0  0  0  0
 10 24  1  0  0  0  0
 11 25  1  0  0  0  0
 11 26  1  0  0  0  0
 11 27  1  0  0  0  0
M  END
