
 OpenBabel10072619243D

357364  0  0  1  0  0  0  0  0999 V2000
    0.8997    5.4446   -3.1540 C   0  0  0  0  0  0  0  0  0  0  0  0
    0.3616    4.2677   -2.3556 C   0  0  3  0  0  0  0  0  0  0  0  0
    0.8860    2.8671   -2.8077 C   0  0  0  0  0  0  0  0  0  0  0  0
    2.3191    2.7529   -2.8893 O   0  0  0  0  0  0  0  0  0  0  0  0
    2.8624    1.3830   -3.1032 C   0  0  0  0  0  0  0  0  0  0  0  0
    2.8938    0.7754   -4.7621 C   0  0  3  0  0  0  0  0  0  0  0  0
    4.0806   -0.6303   -5.7176 C   0  0  3  0  0  0  0  0  0  0  0  0
    4.7348   -0.0944   -4.6681 C   0  0  3  0  0  0  0  0  0  0  0  0
    4.5511    1.0528   -6.1134 C   0  0  3  0  0  0  0  0  0  0  0  0
    4.2813    2.3744   -5.5353 C   0  0  3  0  0  0  0  0  0  0  0  0
    2.9643    2.1390   -5.3022 O   0  0  0  0  0  0  0  0  0  0  0  0
    4.6966    3.4139   -6.3336 O   0  0  0  0  0  0  0  0  0  0  0  0
    6.0784    3.6289   -6.1399 C   0  0  3  0  0  0  0  0  0  0  0  0
    6.9923    2.6271   -6.6172 C   0  0  3  0  0  0  0  0  0  0  0  0
    7.0595    1.5126   -5.6638 O   0  0  0  0  0  0  0  0  0  0  0  0
    7.1982    1.6565   -4.2525 C   0  0  3  0  0  0  0  0  0  0  0  0
    6.6520    2.9568   -3.7174 C   0  0  3  0  0  0  0  0  0  0  0  0
    6.7017    4.0454   -4.7906 C   0  0  3  0  0  0  0  0  0  0  0  0
    6.3475    5.3588   -4.3988 O   0  0  0  0  0  0  0  0  0  0  0  0
    6.6021    6.3103   -5.4523 C   0  0  0  0  0  0  0  0  0  0  0  0
    5.4524    6.3577   -6.4748 C   0  0  3  0  0  0  0  0  0  0  0  0
    4.1107    6.2359   -5.7827 C   0  0  0  0  0  0  0  0  0  0  0  0
    5.5678    7.4052   -7.4096 O   0  0  0  0  0  0  0  0  0  0  0  0
    7.0094    3.2676   -2.4010 O   0  0  0  0  0  0  0  0  0  0  0  0
    5.9123    3.9906   -1.8337 C   0  0  0  0  0  0  0  0  0  0  0  0
    6.3681    4.6680   -0.5804 C   0  0  3  0  0  0  0  0  0  0  0  0
    7.7701    5.2050   -0.8005 C   0  0  0  0  0  0  0  0  0  0  0  0
    5.4529    5.7184   -0.2781 O   0  0  0  0  0  0  0  0  0  0  0  0
    8.4203    1.1503   -3.7928 O   0  0  0  0  0  0  0  0  0  0  0  0
    8.8770   -0.2335   -3.9538 C   0  0  3  0  0  0  0  0  0  0  0  0
    8.7214   -1.1669   -5.6322 C   0  0  3  0  0  0  0  0  0  0  0  0
    7.1406   -0.9248   -4.9925 O   0  0  0  0  0  0  0  0  0  0  0  0
    6.4070   -2.0139   -4.2058 C   0  0  3  0  0  0  0  0  0  0  0  0
    6.8263   -1.3229   -2.8487 C   0  0  3  0  0  0  0  0  0  0  0  0
    8.3371   -0.8763   -2.6438 C   0  0  3  0  0  0  0  0  0  0  0  0
    8.6026    0.1085   -1.6833 O   0  0  0  0  0  0  0  0  0  0  0  0
    8.1584   -0.3918   -0.4748 C   0  0  0  0  0  0  0  0  0  0  0  0
    8.5931    0.4787    0.6237 C   0  0  3  0  0  0  0  0  0  0  0  0
   10.0966    0.3918    0.6528 C   0  0  0  0  0  0  0  0  0  0  0  0
    8.1356    1.7922    0.3492 O   0  0  0  0  0  0  0  0  0  0  0  0
    5.9602   -1.2153   -1.7747 O   0  0  0  0  0  0  0  0  0  0  0  0
    5.1932   -2.3367   -1.6672 C   0  0  0  0  0  0  0  0  0  0  0  0
    5.9919   -3.5494   -1.3310 C   0  0  3  0  0  0  0  0  0  0  0  0
    6.7137   -3.2460   -0.0731 C   0  0  0  0  0  0  0  0  0  0  0  0
    5.1471   -4.6491   -1.1332 O   0  0  0  0  0  0  0  0  0  0  0  0
    6.1419   -3.4724   -4.5761 O   0  0  0  0  0  0  0  0  0  0  0  0
    5.7683   -4.3515   -5.9801 C   0  0  3  0  0  0  0  0  0  0  0  0
    6.4758   -4.2221   -7.4633 C   0  0  3  0  0  0  0  0  0  0  0  0
    6.0533   -3.0436   -8.0724 O   0  0  0  0  0  0  0  0  0  0  0  0
    4.7166   -2.9107   -8.3179 C   0  0  3  0  0  0  0  0  0  0  0  0
    3.8924   -3.3800   -7.1017 C   0  0  3  0  0  0  0  0  0  0  0  0
    4.3870   -4.6416   -6.4297 C   0  0  3  0  0  0  0  0  0  0  0  0
    3.7133   -5.3028   -5.3862 O   0  0  0  0  0  0  0  0  0  0  0  0
    3.9019   -6.7462   -5.4313 C   0  0  0  0  0  0  0  0  0  0  0  0
    4.8981   -7.2718   -4.4261 C   0  0  3  0  0  0  0  0  0  0  0  0
    4.5487   -6.6835   -3.0729 C   0  0  0  0  0  0  0  0  0  0  0  0
    4.9320   -8.6886   -4.3874 O   0  0  0  0  0  0  0  0  0  0  0  0
    2.5125   -3.1054   -7.2108 O   0  0  0  0  0  0  0  0  0  0  0  0
    1.9193   -3.8141   -8.2776 C   0  0  0  0  0  0  0  0  0  0  0  0
    1.9108   -5.2959   -7.9653 C   0  0  3  0  0  0  0  0  0  0  0  0
    1.2721   -5.4994   -6.6023 C   0  0  0  0  0  0  0  0  0  0  0  0
    1.2655   -6.0617   -8.9566 O   0  0  0  0  0  0  0  0  0  0  0  0
    4.5875   -3.4222   -9.6108 O   0  0  0  0  0  0  0  0  0  0  0  0
    5.3798   -2.7379  -10.6345 C   0  0  3  0  0  0  0  0  0  0  0  0
    6.8915   -2.6963  -10.5065 C   0  0  3  0  0  0  0  0  0  0  0  0
    7.3555   -1.7286   -9.5978 O   0  0  0  0  0  0  0  0  0  0  0  0
    7.0011   -0.3846   -9.7100 C   0  0  3  0  0  0  0  0  0  0  0  0
    5.4964   -0.2506   -9.8884 C   0  0  3  0  0  0  0  0  0  0  0  0
    4.9777   -1.2994  -10.9025 C   0  0  3  0  0  0  0  0  0  0  0  0
    3.5680   -1.3254  -11.0767 O   0  0  0  0  0  0  0  0  0  0  0  0
    3.1355   -0.1101  -11.6679 C   0  0  0  0  0  0  0  0  0  0  0  0
    1.6700   -0.2362  -11.9673 C   0  0  3  0  0  0  0  0  0  0  0  0
    1.4262   -1.3069  -13.0067 C   0  0  0  0  0  0  0  0  0  0  0  0
    1.0297   -0.6184  -10.7428 O   0  0  0  0  0  0  0  0  0  0  0  0
    5.1743    1.0387  -10.3698 O   0  0  0  0  0  0  0  0  0  0  0  0
    5.2567    2.0928   -9.4494 C   0  0  0  0  0  0  0  0  0  0  0  0
    4.8906    3.3656  -10.1522 C   0  0  3  0  0  0  0  0  0  0  0  0
    3.4426    3.4159  -10.5771 C   0  0  0  0  0  0  0  0  0  0  0  0
    5.1994    4.4849   -9.3491 O   0  0  0  0  0  0  0  0  0  0  0  0
    7.7371    0.2627  -10.7469 O   0  0  0  0  0  0  0  0  0  0  0  0
    9.1645    0.5284  -10.5887 C   0  0  3  0  0  0  0  0  0  0  0  0
    9.9643   -0.5722  -10.0782 C   0  0  3  0  0  0  0  0  0  0  0  0
    9.6559   -0.6623   -8.7568 O   0  0  0  0  0  0  0  0  0  0  0  0
   10.3226    0.0911   -7.8471 C   0  0  3  0  0  0  0  0  0  0  0  0
    9.6028    1.2999   -8.1496 C   0  0  3  0  0  0  0  0  0  0  0  0
    9.5077    1.7339   -9.6833 C   0  0  3  0  0  0  0  0  0  0  0  0
    8.5353    2.7220  -10.0580 O   0  0  0  0  0  0  0  0  0  0  0  0
    8.7360    3.0503  -11.4228 C   0  0  0  0  0  0  0  0  0  0  0  0
    7.9073    4.1576  -12.0065 C   0  0  3  0  0  0  0  0  0  0  0  0
    7.9776    5.3849  -11.1416 C   0  0  0  0  0  0  0  0  0  0  0  0
    8.4422    4.4221  -13.3086 O   0  0  0  0  0  0  0  0  0  0  0  0
    9.6350    2.0529   -7.0010 O   0  0  0  0  0  0  0  0  0  0  0  0
    9.7339    1.7464   -5.6431 C   0  0  0  0  0  0  0  0  0  0  0  0
   10.4259    2.4724   -4.5032 C   0  0  3  0  0  0  0  0  0  0  0  0
   11.7539    2.8779   -4.9555 C   0  0  0  0  0  0  0  0  0  0  0  0
    9.7106    3.5526   -3.8981 O   0  0  0  0  0  0  0  0  0  0  0  0
   11.4678   -0.3462   -7.1239 O   0  0  0  0  0  0  0  0  0  0  0  0
   11.2117   -1.7356   -6.6286 C   0  0  3  0  0  0  0  0  0  0  0  0
   10.3335   -2.4519   -7.7568 C   0  0  3  0  0  0  0  0  0  0  0  0
    8.5118   -2.0591   -7.6620 O   0  0  0  0  0  0  0  0  0  0  0  0
    7.3912   -2.2987   -6.2158 C   0  0  3  0  0  0  0  0  0  0  0  0
    5.6982   -1.2346   -6.4104 O   0  0  0  0  0  0  0  0  0  0  0  0
    8.7052   -2.6849   -4.5989 C   0  0  3  0  0  0  0  0  0  0  0  0
   10.5528   -1.9476   -4.9380 C   0  0  3  0  0  0  0  0  0  0  0  0
   11.3883   -2.2996   -3.8615 O   0  0  0  0  0  0  0  0  0  0  0  0
   12.6162   -1.6236   -3.7578 C   0  0  0  0  0  0  0  0  0  0  0  0
   12.6803   -0.7612   -2.5044 C   0  0  3  0  0  0  0  0  0  0  0  0
   12.3884   -1.5722   -1.2478 C   0  0  0  0  0  0  0  0  0  0  0  0
   13.9941   -0.2167   -2.4232 O   0  0  0  0  0  0  0  0  0  0  0  0
    8.6840   -3.6521   -3.5723 O   0  0  0  0  0  0  0  0  0  0  0  0
    9.7544   -4.5387   -3.3486 C   0  0  0  0  0  0  0  0  0  0  0  0
   10.7807   -4.9543   -4.4564 C   0  0  3  0  0  0  0  0  0  0  0  0
   12.2073   -5.1976   -4.2027 C   0  0  0  0  0  0  0  0  0  0  0  0
   10.6009   -5.9088   -5.5333 O   0  0  0  0  0  0  0  0  0  0  0  0
   11.0513   -3.8582   -8.0418 C   0  0  0  0  0  0  0  0  0  0  0  0
   12.3060   -3.5249   -8.6809 O   0  0  0  0  0  0  0  0  0  0  0  0
   13.0304   -4.6909   -9.0167 C   0  0  0  0  0  0  0  0  0  0  0  0
   14.3862   -4.3339   -9.6153 C   0  0  3  0  0  0  0  0  0  0  0  0
   15.2582   -3.5519   -8.6427 C   0  0  0  0  0  0  0  0  0  0  0  0
   15.0486   -5.5377   -9.9896 O   0  0  0  0  0  0  0  0  0  0  0  0
   11.4357   -0.6286  -10.1173 C   0  0  0  0  0  0  0  0  0  0  0  0
   12.0614   -0.1120  -11.2129 O   0  0  0  0  0  0  0  0  0  0  0  0
   13.4533   -0.3410  -10.8953 C   0  0  0  0  0  0  0  0  0  0  0  0
   14.0781   -0.2664  -12.2420 C   0  0  3  0  0  0  0  0  0  0  0  0
   13.5502   -1.4386  -13.0659 C   0  0  0  0  0  0  0  0  0  0  0  0
   13.6192    0.9611  -12.8142 O   0  0  0  0  0  0  0  0  0  0  0  0
    7.6211   -2.5188  -11.8316 C   0  0  0  0  0  0  0  0  0  0  0  0
    9.0375   -2.5666  -11.7127 O   0  0  0  0  0  0  0  0  0  0  0  0
    9.5370   -3.6088  -10.8834 C   0  0  0  0  0  0  0  0  0  0  0  0
    9.4060   -4.8702  -11.6725 C   0  0  3  0  0  0  0  0  0  0  0  0
   10.2411   -4.6236  -12.9230 C   0  0  0  0  0  0  0  0  0  0  0  0
    9.8261   -5.9878  -10.9162 O   0  0  0  0  0  0  0  0  0  0  0  0
    6.9193   -5.3820   -8.2566 C   0  0  0  0  0  0  0  0  0  0  0  0
    5.7759   -5.8545   -8.8191 O   0  0  0  0  0  0  0  0  0  0  0  0
    6.1050   -6.9100   -9.6556 C   0  0  0  0  0  0  0  0  0  0  0  0
    4.7458   -7.3841  -10.0703 C   0  0  3  0  0  0  0  0  0  0  0  0
    3.9984   -6.2649  -10.7882 C   0  0  0  0  0  0  0  0  0  0  0  0
    4.9123   -8.5094  -10.9007 O   0  0  0  0  0  0  0  0  0  0  0  0
    9.1560   -3.2256   -6.2178 C   0  0  0  0  0  0  0  0  0  0  0  0
    8.8261   -4.7192   -5.9880 O   0  0  0  0  0  0  0  0  0  0  0  0
    8.1146   -5.4845   -5.0688 C   0  0  0  0  0  0  0  0  0  0  0  0
    8.4471   -6.5832   -4.0818 C   0  0  3  0  0  0  0  0  0  0  0  0
    7.3854   -6.5121   -2.9917 C   0  0  0  0  0  0  0  0  0  0  0  0
    8.5942   -7.8302   -4.7078 O   0  0  0  0  0  0  0  0  0  0  0  0
    8.1688    3.5817   -7.2042 C   0  0  0  0  0  0  0  0  0  0  0  0
    8.5980    4.8898   -7.5628 O   0  0  0  0  0  0  0  0  0  0  0  0
   10.0736    4.7493   -7.6270 C   0  0  0  0  0  0  0  0  0  0  0  0
   10.8200    5.7251   -8.4973 C   0  0  3  0  0  0  0  0  0  0  0  0
   12.2957    5.6078   -8.1073 C   0  0  0  0  0  0  0  0  0  0  0  0
   10.7458    5.3260   -9.8642 O   0  0  0  0  0  0  0  0  0  0  0  0
    3.5055    0.8717   -7.2802 O   0  0  0  0  0  0  0  0  0  0  0  0
    2.0435    0.8934   -7.2165 C   0  0  0  0  0  0  0  0  0  0  0  0
    1.1442    2.1200   -6.6858 C   0  0  3  0  0  0  0  0  0  0  0  0
    1.5012    3.4939   -7.2385 C   0  0  0  0  0  0  0  0  0  0  0  0
   -0.2432    1.8679   -6.9313 O   0  0  0  0  0  0  0  0  0  0  0  0
    3.7618   -0.9134   -3.7008 O   0  0  0  0  0  0  0  0  0  0  0  0
    3.0594   -2.1868   -4.0439 C   0  0  0  0  0  0  0  0  0  0  0  0
    2.5348   -2.9447   -2.8286 C   0  0  3  0  0  0  0  0  0  0  0  0
    1.9140   -1.9629   -1.8812 C   0  0  0  0  0  0  0  0  0  0  0  0
    1.6808   -4.0191   -3.1453 O   0  0  0  0  0  0  0  0  0  0  0  0
    0.6172    4.4932   -0.9665 O   0  0  0  0  0  0  0  0  0  0  0  0
    0.6513    5.3447   -4.2142 H   0  0  0  0  0  0  0  0  0  0  0  0
    1.9821    5.5378   -3.0391 H   0  0  0  0  0  0  0  0  0  0  0  0
    0.4630    6.3856   -2.7919 H   0  0  0  0  0  0  0  0  0  0  0  0
   -0.7315    4.2819   -2.4576 H   0  0  0  0  0  0  0  0  0  0  0  0
    0.4663    2.6624   -3.7889 H   0  0  0  0  0  0  0  0  0  0  0  0
    0.5070    2.1225   -2.1025 H   0  0  0  0  0  0  0  0  0  0  0  0
    2.3192    0.7334   -2.4325 H   0  0  0  0  0  0  0  0  0  0  0  0
    3.8729    1.5037   -2.7001 H   0  0  0  0  0  0  0  0  0  0  0  0
    1.8615    0.4338   -4.8383 H   0  0  0  0  0  0  0  0  0  0  0  0
    3.2956   -1.3055   -5.9746 H   0  0  0  0  0  0  0  0  0  0  0  0
    4.8939    0.7022   -3.9858 H   0  0  0  0  0  0  0  0  0  0  0  0
    5.4408    0.9350   -6.6912 H   0  0  0  0  0  0  0  0  0  0  0  0
    4.5267    2.6703   -4.5657 H   0  0  0  0  0  0  0  0  0  0  0  0
    6.3119    4.3076   -6.9175 H   0  0  0  0  0  0  0  0  0  0  0  0
    6.6793    2.0492   -7.4595 H   0  0  0  0  0  0  0  0  0  0  0  0
    6.5252    1.0639   -3.7175 H   0  0  0  0  0  0  0  0  0  0  0  0
    5.6387    2.7064   -3.5059 H   0  0  0  0  0  0  0  0  0  0  0  0
    7.7612    4.1202   -4.9650 H   0  0  0  0  0  0  0  0  0  0  0  0
    7.5880    6.1328   -5.8972 H   0  0  0  0  0  0  0  0  0  0  0  0
    6.6919    7.2907   -4.9854 H   0  0  0  0  0  0  0  0  0  0  0  0
    5.4201    5.5467   -7.1633 H   0  0  0  0  0  0  0  0  0  0  0  0
    3.8317    7.1840   -5.3390 H   0  0  0  0  0  0  0  0  0  0  0  0
    4.1051    5.4619   -5.0023 H   0  0  0  0  0  0  0  0  0  0  0  0
    3.3590    5.9269   -6.5130 H   0  0  0  0  0  0  0  0  0  0  0  0
    5.7831    8.2141   -6.9373 H   0  0  0  0  0  0  0  0  0  0  0  0
    5.0467    3.3456   -1.6441 H   0  0  0  0  0  0  0  0  0  0  0  0
    5.5459    4.7358   -2.5407 H   0  0  0  0  0  0  0  0  0  0  0  0
    6.3690    3.9428    0.2366 H   0  0  0  0  0  0  0  0  0  0  0  0
    7.7932    5.8405   -1.6936 H   0  0  0  0  0  0  0  0  0  0  0  0
    8.4866    4.3879   -0.9552 H   0  0  0  0  0  0  0  0  0  0  0  0
    8.0939    5.7919    0.0547 H   0  0  0  0  0  0  0  0  0  0  0  0
    5.2163    6.1508   -1.1196 H   0  0  0  0  0  0  0  0  0  0  0  0
    9.9194   -0.1045   -3.6949 H   0  0  0  0  0  0  0  0  0  0  0  0
    8.4275   -0.4978   -6.4191 H   0  0  0  0  0  0  0  0  0  0  0  0
    5.4108   -1.8298   -4.3594 H   0  0  0  0  0  0  0  0  0  0  0  0
    6.5308   -0.3676   -3.1407 H   0  0  0  0  0  0  0  0  0  0  0  0
    8.9698   -1.7307   -2.3555 H   0  0  0  0  0  0  0  0  0  0  0  0
    8.6111   -1.3724   -0.3446 H   0  0  0  0  0  0  0  0  0  0  0  0
    7.0867   -0.3335   -0.4863 H   0  0  0  0  0  0  0  0  0  0  0  0
    8.1108    0.0760    1.5158 H   0  0  0  0  0  0  0  0  0  0  0  0
   10.5431    0.9053   -0.2059 H   0  0  0  0  0  0  0  0  0  0  0  0
   10.4170   -0.6568    0.6111 H   0  0  0  0  0  0  0  0  0  0  0  0
   10.4633    0.8377    1.5700 H   0  0  0  0  0  0  0  0  0  0  0  0
    8.1995    1.9005   -0.6265 H   0  0  0  0  0  0  0  0  0  0  0  0
    4.7980   -2.5226   -2.6332 H   0  0  0  0  0  0  0  0  0  0  0  0
    4.4085   -2.0986   -0.9604 H   0  0  0  0  0  0  0  0  0  0  0  0
    6.7036   -3.7570   -2.1321 H   0  0  0  0  0  0  0  0  0  0  0  0
    6.0069   -2.9715    0.7070 H   0  0  0  0  0  0  0  0  0  0  0  0
    7.3133   -2.3928   -0.2480 H   0  0  0  0  0  0  0  0  0  0  0  0
    7.3877   -4.0402    0.2103 H   0  0  0  0  0  0  0  0  0  0  0  0
    4.3294   -4.3224   -0.7218 H   0  0  0  0  0  0  0  0  0  0  0  0
    6.0593   -5.2912   -5.5930 H   0  0  0  0  0  0  0  0  0  0  0  0
    7.4886   -3.9782   -7.4438 H   0  0  0  0  0  0  0  0  0  0  0  0
    4.4182   -1.8798   -8.3705 H   0  0  0  0  0  0  0  0  0  0  0  0
    4.2170   -2.7173   -6.3387 H   0  0  0  0  0  0  0  0  0  0  0  0
    4.4833   -5.3609   -7.2210 H   0  0  0  0  0  0  0  0  0  0  0  0
    4.1756   -7.1326   -6.4208 H   0  0  0  0  0  0  0  0  0  0  0  0
    2.9455   -7.1853   -5.1765 H   0  0  0  0  0  0  0  0  0  0  0  0
    5.8858   -7.0278   -4.7922 H   0  0  0  0  0  0  0  0  0  0  0  0
    3.5265   -6.9088   -2.7929 H   0  0  0  0  0  0  0  0  0  0  0  0
    4.6454   -5.5915   -3.1066 H   0  0  0  0  0  0  0  0  0  0  0  0
    5.1884   -7.0818   -2.2815 H   0  0  0  0  0  0  0  0  0  0  0  0
    4.1455   -8.9788   -3.9013 H   0  0  0  0  0  0  0  0  0  0  0  0
    2.4106   -3.5916   -9.2193 H   0  0  0  0  0  0  0  0  0  0  0  0
    0.9061   -3.4372   -8.3925 H   0  0  0  0  0  0  0  0  0  0  0  0
    2.9227   -5.6739   -7.9761 H   0  0  0  0  0  0  0  0  0  0  0  0
    0.2082   -5.2905   -6.6341 H   0  0  0  0  0  0  0  0  0  0  0  0
    1.6763   -4.8342   -5.8311 H   0  0  0  0  0  0  0  0  0  0  0  0
    1.4072   -6.5301   -6.2834 H   0  0  0  0  0  0  0  0  0  0  0  0
    0.4040   -5.6526   -9.1147 H   0  0  0  0  0  0  0  0  0  0  0  0
    5.1536   -3.3563  -11.5059 H   0  0  0  0  0  0  0  0  0  0  0  0
    7.1869   -3.6478  -10.1018 H   0  0  0  0  0  0  0  0  0  0  0  0
    7.1790    0.0985   -8.7561 H   0  0  0  0  0  0  0  0  0  0  0  0
    5.0190   -0.3528   -8.9213 H   0  0  0  0  0  0  0  0  0  0  0  0
    5.4166   -1.0204  -11.8655 H   0  0  0  0  0  0  0  0  0  0  0  0
    3.7351    0.1475  -12.5496 H   0  0  0  0  0  0  0  0  0  0  0  0
    3.2037    0.6298  -10.8866 H   0  0  0  0  0  0  0  0  0  0  0  0
    1.2892    0.7364  -12.2899 H   0  0  0  0  0  0  0  0  0  0  0  0
    1.7831   -2.2837  -12.6607 H   0  0  0  0  0  0  0  0  0  0  0  0
    1.9342   -1.0657  -13.9455 H   0  0  0  0  0  0  0  0  0  0  0  0
    0.3541   -1.4008  -13.1858 H   0  0  0  0  0  0  0  0  0  0  0  0
    1.6660   -1.2391  -10.3289 H   0  0  0  0  0  0  0  0  0  0  0  0
    6.2743    2.1631   -9.1104 H   0  0  0  0  0  0  0  0  0  0  0  0
    4.5920    1.9794   -8.6107 H   0  0  0  0  0  0  0  0  0  0  0  0
    5.4942    3.3880  -11.0441 H   0  0  0  0  0  0  0  0  0  0  0  0
    2.7795    3.3975   -9.7129 H   0  0  0  0  0  0  0  0  0  0  0  0
    3.1832    2.5870  -11.2314 H   0  0  0  0  0  0  0  0  0  0  0  0
    3.2572    4.3389  -11.1265 H   0  0  0  0  0  0  0  0  0  0  0  0
    4.5698    4.4887   -8.6061 H   0  0  0  0  0  0  0  0  0  0  0  0
    9.5093    0.6712  -11.6083 H   0  0  0  0  0  0  0  0  0  0  0  0
    9.5363   -1.4529  -10.4137 H   0  0  0  0  0  0  0  0  0  0  0  0
    9.7905   -0.1127   -7.0046 H   0  0  0  0  0  0  0  0  0  0  0  0
    8.5723    1.0018   -8.1695 H   0  0  0  0  0  0  0  0  0  0  0  0
   10.5016    2.0904   -9.9350 H   0  0  0  0  0  0  0  0  0  0  0  0
    8.5491    2.1974  -12.0794 H   0  0  0  0  0  0  0  0  0  0  0  0
    9.7846    3.3354  -11.4935 H   0  0  0  0  0  0  0  0  0  0  0  0
    6.8832    3.8356  -12.1568 H   0  0  0  0  0  0  0  0  0  0  0  0
    8.9885    5.7842  -11.1824 H   0  0  0  0  0  0  0  0  0  0  0  0
    7.7081    5.1686  -10.1037 H   0  0  0  0  0  0  0  0  0  0  0  0
    7.3293    6.1700  -11.5243 H   0  0  0  0  0  0  0  0  0  0  0  0
    9.4105    4.4605  -13.2159 H   0  0  0  0  0  0  0  0  0  0  0  0
    9.8014    0.7182   -5.4861 H   0  0  0  0  0  0  0  0  0  0  0  0
    8.8216    2.1564   -5.3458 H   0  0  0  0  0  0  0  0  0  0  0  0
   10.5070    1.7600   -3.6849 H   0  0  0  0  0  0  0  0  0  0  0  0
   11.7139    3.2459   -5.9827 H   0  0  0  0  0  0  0  0  0  0  0  0
   12.3641    1.9777   -4.9535 H   0  0  0  0  0  0  0  0  0  0  0  0
   12.0976    3.6505   -4.2788 H   0  0  0  0  0  0  0  0  0  0  0  0
    9.5506    4.2517   -4.5403 H   0  0  0  0  0  0  0  0  0  0  0  0
   12.2237   -2.1468   -6.5587 H   0  0  0  0  0  0  0  0  0  0  0  0
   10.5470   -2.2021   -8.7520 H   0  0  0  0  0  0  0  0  0  0  0  0
    7.1337   -3.2326   -6.1259 H   0  0  0  0  0  0  0  0  0  0  0  0
    8.3308   -2.0731   -3.9344 H   0  0  0  0  0  0  0  0  0  0  0  0
   10.6247   -0.8877   -4.8886 H   0  0  0  0  0  0  0  0  0  0  0  0
   12.8821   -1.0600   -4.6526 H   0  0  0  0  0  0  0  0  0  0  0  0
   13.3738   -2.3954   -3.6578 H   0  0  0  0  0  0  0  0  0  0  0  0
   11.9710    0.0689   -2.5749 H   0  0  0  0  0  0  0  0  0  0  0  0
   13.0886   -2.4069   -1.1468 H   0  0  0  0  0  0  0  0  0  0  0  0
   11.3736   -1.9813   -1.2490 H   0  0  0  0  0  0  0  0  0  0  0  0
   12.5191   -0.9525   -0.3569 H   0  0  0  0  0  0  0  0  0  0  0  0
   14.6170   -0.9614   -2.3479 H   0  0  0  0  0  0  0  0  0  0  0  0
    9.3100   -5.3193   -2.7691 H   0  0  0  0  0  0  0  0  0  0  0  0
   10.3198   -4.1683   -2.5241 H   0  0  0  0  0  0  0  0  0  0  0  0
   10.9326   -4.0178   -4.8854 H   0  0  0  0  0  0  0  0  0  0  0  0
   12.3802   -6.2411   -3.9735 H   0  0  0  0  0  0  0  0  0  0  0  0
   12.5781   -4.5040   -3.4700 H   0  0  0  0  0  0  0  0  0  0  0  0
   12.7007   -5.0005   -5.1752 H   0  0  0  0  0  0  0  0  0  0  0  0
   10.2677   -6.7786   -5.2522 H   0  0  0  0  0  0  0  0  0  0  0  0
   10.4636   -4.5256   -8.6611 H   0  0  0  0  0  0  0  0  0  0  0  0
   11.3510   -4.3801   -7.1409 H   0  0  0  0  0  0  0  0  0  0  0  0
   12.4536   -5.2598   -9.7472 H   0  0  0  0  0  0  0  0  0  0  0  0
   13.1619   -5.3169   -8.1279 H   0  0  0  0  0  0  0  0  0  0  0  0
   14.2434   -3.7302  -10.5180 H   0  0  0  0  0  0  0  0  0  0  0  0
   15.4308   -4.1274   -7.7272 H   0  0  0  0  0  0  0  0  0  0  0  0
   14.8036   -2.5937   -8.3716 H   0  0  0  0  0  0  0  0  0  0  0  0
   16.2407   -3.3572   -9.0845 H   0  0  0  0  0  0  0  0  0  0  0  0
   15.1212   -6.0988   -9.1972 H   0  0  0  0  0  0  0  0  0  0  0  0
   11.7294   -1.6710  -10.0131 H   0  0  0  0  0  0  0  0  0  0  0  0
   11.8748   -0.0895   -9.2845 H   0  0  0  0  0  0  0  0  0  0  0  0
   13.6278   -1.3253  -10.4282 H   0  0  0  0  0  0  0  0  0  0  0  0
   13.7607    0.4385  -10.1896 H   0  0  0  0  0  0  0  0  0  0  0  0
   15.1620   -0.2683  -12.1430 H   0  0  0  0  0  0  0  0  0  0  0  0
   12.4543   -1.4203  -13.1561 H   0  0  0  0  0  0  0  0  0  0  0  0
   13.8169   -2.3973  -12.6075 H   0  0  0  0  0  0  0  0  0  0  0  0
   13.9442   -1.3851  -14.0779 H   0  0  0  0  0  0  0  0  0  0  0  0
   12.6606    0.9778  -12.5906 H   0  0  0  0  0  0  0  0  0  0  0  0
    7.4116   -1.5497  -12.2785 H   0  0  0  0  0  0  0  0  0  0  0  0
    7.3214   -3.2879  -12.5371 H   0  0  0  0  0  0  0  0  0  0  0  0
    9.0721   -3.6410   -9.8964 H   0  0  0  0  0  0  0  0  0  0  0  0
   10.5951   -3.4089  -10.6812 H   0  0  0  0  0  0  0  0  0  0  0  0
    8.3562   -5.0225  -11.9318 H   0  0  0  0  0  0  0  0  0  0  0  0
   11.2961   -4.4981  -12.6529 H   0  0  0  0  0  0  0  0  0  0  0  0
    9.9369   -3.6999  -13.4371 H   0  0  0  0  0  0  0  0  0  0  0  0
   10.1405   -5.4415  -13.6268 H   0  0  0  0  0  0  0  0  0  0  0  0
   10.7633   -5.8637  -10.7006 H   0  0  0  0  0  0  0  0  0  0  0  0
    7.4114   -6.1374   -7.6526 H   0  0  0  0  0  0  0  0  0  0  0  0
    7.6595   -5.0885   -9.0112 H   0  0  0  0  0  0  0  0  0  0  0  0
    6.6741   -7.6661   -9.1029 H   0  0  0  0  0  0  0  0  0  0  0  0
    6.7211   -6.5520  -10.4912 H   0  0  0  0  0  0  0  0  0  0  0  0
    4.1833   -7.6506   -9.1642 H   0  0  0  0  0  0  0  0  0  0  0  0
    4.5896   -5.8601  -11.6161 H   0  0  0  0  0  0  0  0  0  0  0  0
    3.7759   -5.4391  -10.1128 H   0  0  0  0  0  0  0  0  0  0  0  0
    3.0464   -6.6208  -11.1749 H   0  0  0  0  0  0  0  0  0  0  0  0
    5.5727   -8.2568  -11.5677 H   0  0  0  0  0  0  0  0  0  0  0  0
   10.1878   -3.4147   -6.1018 H   0  0  0  0  0  0  0  0  0  0  0  0
    9.0256   -3.6131   -7.2359 H   0  0  0  0  0  0  0  0  0  0  0  0
    7.5620   -6.0671   -5.7694 H   0  0  0  0  0  0  0  0  0  0  0  0
    7.5043   -4.7997   -4.5604 H   0  0  0  0  0  0  0  0  0  0  0  0
    9.4012   -6.6511   -3.6110 H   0  0  0  0  0  0  0  0  0  0  0  0
    6.5306   -6.0543   -3.4502 H   0  0  0  0  0  0  0  0  0  0  0  0
    7.5481   -5.7624   -2.2162 H   0  0  0  0  0  0  0  0  0  0  0  0
    7.0961   -7.4454   -2.5241 H   0  0  0  0  0  0  0  0  0  0  0  0
    8.0127   -7.8833   -5.4788 H   0  0  0  0  0  0  0  0  0  0  0  0
    8.2420    3.1428   -8.1692 H   0  0  0  0  0  0  0  0  0  0  0  0
    8.8630    3.5691   -6.4033 H   0  0  0  0  0  0  0  0  0  0  0  0
   10.3556    3.7618   -8.0108 H   0  0  0  0  0  0  0  0  0  0  0  0
   10.4582    4.7929   -6.5983 H   0  0  0  0  0  0  0  0  0  0  0  0
   10.3905    6.7293   -8.3919 H   0  0  0  0  0  0  0  0  0  0  0  0
   12.6941    4.6149   -8.3655 H   0  0  0  0  0  0  0  0  0  0  0  0
   12.4532    5.7406   -7.0317 H   0  0  0  0  0  0  0  0  0  0  0  0
   12.8913    6.3366   -8.6562 H   0  0  0  0  0  0  0  0  0  0  0  0
   10.9961    4.3901   -9.9223 H   0  0  0  0  0  0  0  0  0  0  0  0
    1.7335   -0.0100   -6.6807 H   0  0  0  0  0  0  0  0  0  0  0  0
    1.7003    0.6628   -8.2256 H   0  0  0  0  0  0  0  0  0  0  0  0
    1.1410    2.1802   -5.5936 H   0  0  0  0  0  0  0  0  0  0  0  0
    1.1927    3.5835   -8.2776 H   0  0  0  0  0  0  0  0  0  0  0  0
    2.5608    3.7054   -7.1651 H   0  0  0  0  0  0  0  0  0  0  0  0
    0.9739    4.2789   -6.6866 H   0  0  0  0  0  0  0  0  0  0  0  0
   -0.3462    0.9100   -6.9490 H   0  0  0  0  0  0  0  0  0  0  0  0
    3.7288   -2.8762   -4.5368 H   0  0  0  0  0  0  0  0  0  0  0  0
    2.2001   -1.9810   -4.6808 H   0  0  0  0  0  0  0  0  0  0  0  0
    3.3460   -3.4606   -2.3490 H   0  0  0  0  0  0  0  0  0  0  0  0
    0.9079   -1.7080   -2.1976 H   0  0  0  0  0  0  0  0  0  0  0  0
    2.5178   -1.0635   -1.8419 H   0  0  0  0  0  0  0  0  0  0  0  0
    1.8926   -2.3315   -0.8597 H   0  0  0  0  0  0  0  0  0  0  0  0
    0.9019   -3.6694   -3.5946 H   0  0  0  0  0  0  0  0  0  0  0  0
    1.5818    4.4652   -0.8440 H   0  0  0  0  0  0  0  0  0  0  0  0
  1  2  1  0  0  0  0
  1162  1  0  0  0  0
  1163  1  0  0  0  0
  1164  1  0  0  0  0
  2  3  1  0  0  0  0
  2161  1  0  0  0  0
  2165  1  0  0  0  0
  3  4  1  0  0  0  0
  3166  1  0  0  0  0
  3167  1  0  0  0  0
  4  5  1  0  0  0  0
  5  6  1  0  0  0  0
  5168  1  0  0  0  0
  5169  1  0  0  0  0
  6  7  1  0  0  0  0
  6 11  1  0  0  0  0
  6170  1  0  0  0  0
  7  8  1  0  0  0  0
  7102  1  0  0  0  0
  7171  1  0  0  0  0
  8  9  1  0  0  0  0
  8156  1  0  0  0  0
  8172  1  0  0  0  0
  9 10  1  0  0  0  0
  9151  1  0  0  0  0
  9173  1  0  0  0  0
 10 11  1  0  0  0  0
 10 12  1  0  0  0  0
 10174  1  0  0  0  0
 12 13  1  0  0  0  0
 13 14  1  0  0  0  0
 13 18  1  0  0  0  0
 13175  1  0  0  0  0
 14 15  1  0  0  0  0
 14145  1  0  0  0  0
 14176  1  0  0  0  0
 15 16  1  0  0  0  0
 16 17  1  0  0  0  0
 16 29  1  0  0  0  0
 16177  1  0  0  0  0
 17 18  1  0  0  0  0
 17 24  1  0  0  0  0
 17178  1  0  0  0  0
 18 19  1  0  0  0  0
 18179  1  0  0  0  0
 19 20  1  0  0  0  0
 20 21  1  0  0  0  0
 20180  1  0  0  0  0
 20181  1  0  0  0  0
 21 22  1  0  0  0  0
 21 23  1  0  0  0  0
 21182  1  0  0  0  0
 22183  1  0  0  0  0
 22184  1  0  0  0  0
 22185  1  0  0  0  0
 23186  1  0  0  0  0
 24 25  1  0  0  0  0
 25 26  1  0  0  0  0
 25187  1  0  0  0  0
 25188  1  0  0  0  0
 26 27  1  0  0  0  0
 26 28  1  0  0  0  0
 26189  1  0  0  0  0
 27190  1  0  0  0  0
 27191  1  0  0  0  0
 27192  1  0  0  0  0
 28193  1  0  0  0  0
 29 30  1  0  0  0  0
 30 31  1  0  0  0  0
 30 35  1  0  0  0  0
 30194  1  0  0  0  0
 31 32  1  0  0  0  0
 31139  1  0  0  0  0
 31195  1  0  0  0  0
 32 33  1  0  0  0  0
 33 34  1  0  0  0  0
 33 46  1  0  0  0  0
 33196  1  0  0  0  0
 34 35  1  0  0  0  0
 34 41  1  0  0  0  0
 34197  1  0  0  0  0
 35 36  1  0  0  0  0
 35198  1  0  0  0  0
 36 37  1  0  0  0  0
 37 38  1  0  0  0  0
 37199  1  0  0  0  0
 37200  1  0  0  0  0
 38 39  1  0  0  0  0
 38 40  1  0  0  0  0
 38201  1  0  0  0  0
 39202  1  0  0  0  0
 39203  1  0  0  0  0
 39204  1  0  0  0  0
 40205  1  0  0  0  0
 41 42  1  0  0  0  0
 42 43  1  0  0  0  0
 42206  1  0  0  0  0
 42207  1  0  0  0  0
 43 44  1  0  0  0  0
 43 45  1  0  0  0  0
 43208  1  0  0  0  0
 44209  1  0  0  0  0
 44210  1  0  0  0  0
 44211  1  0  0  0  0
 45212  1  0  0  0  0
 46 47  1  0  0  0  0
 47 48  1  0  0  0  0
 47 52  1  0  0  0  0
 47213  1  0  0  0  0
 48 49  1  0  0  0  0
 48133  1  0  0  0  0
 48214  1  0  0  0  0
 49 50  1  0  0  0  0
 50 51  1  0  0  0  0
 50 63  1  0  0  0  0
 50215  1  0  0  0  0
 51 52  1  0  0  0  0
 51 58  1  0  0  0  0
 51216  1  0  0  0  0
 52 53  1  0  0  0  0
 52217  1  0  0  0  0
 53 54  1  0  0  0  0
 54 55  1  0  0  0  0
 54218  1  0  0  0  0
 54219  1  0  0  0  0
 55 56  1  0  0  0  0
 55 57  1  0  0  0  0
 55220  1  0  0  0  0
 56221  1  0  0  0  0
 56222  1  0  0  0  0
 56223  1  0  0  0  0
 57224  1  0  0  0  0
 58 59  1  0  0  0  0
 59 60  1  0  0  0  0
 59225  1  0  0  0  0
 59226  1  0  0  0  0
 60 61  1  0  0  0  0
 60 62  1  0  0  0  0
 60227  1  0  0  0  0
 61228  1  0  0  0  0
 61229  1  0  0  0  0
 61230  1  0  0  0  0
 62231  1  0  0  0  0
 63 64  1  0  0  0  0
 64 65  1  0  0  0  0
 64 69  1  0  0  0  0
 64232  1  0  0  0  0
 65 66  1  0  0  0  0
 65127  1  0  0  0  0
 65233  1  0  0  0  0
 66 67  1  0  0  0  0
 67 68  1  0  0  0  0
 67 80  1  0  0  0  0
 67234  1  0  0  0  0
 68 69  1  0  0  0  0
 68 75  1  0  0  0  0
 68235  1  0  0  0  0
 69 70  1  0  0  0  0
 69236  1  0  0  0  0
 70 71  1  0  0  0  0
 71 72  1  0  0  0  0
 71237  1  0  0  0  0
 71238  1  0  0  0  0
 72 73  1  0  0  0  0
 72 74  1  0  0  0  0
 72239  1  0  0  0  0
 73240  1  0  0  0  0
 73241  1  0  0  0  0
 73242  1  0  0  0  0
 74243  1  0  0  0  0
 75 76  1  0  0  0  0
 76 77  1  0  0  0  0
 76244  1  0  0  0  0
 76245  1  0  0  0  0
 77 78  1  0  0  0  0
 77 79  1  0  0  0  0
 77246  1  0  0  0  0
 78247  1  0  0  0  0
 78248  1  0  0  0  0
 78249  1  0  0  0  0
 79250  1  0  0  0  0
 80 81  1  0  0  0  0
 81 82  1  0  0  0  0
 81 86  1  0  0  0  0
 81251  1  0  0  0  0
 82 83  1  0  0  0  0
 82121  1  0  0  0  0
 82252  1  0  0  0  0
 83 84  1  0  0  0  0
 84 85  1  0  0  0  0
 84 97  1  0  0  0  0
 84253  1  0  0  0  0
 85 86  1  0  0  0  0
 85 92  1  0  0  0  0
 85254  1  0  0  0  0
 86 87  1  0  0  0  0
 86255  1  0  0  0  0
 87 88  1  0  0  0  0
 88 89  1  0  0  0  0
 88256  1  0  0  0  0
 88257  1  0  0  0  0
 89 90  1  0  0  0  0
 89 91  1  0  0  0  0
 89258  1  0  0  0  0
 90259  1  0  0  0  0
 90260  1  0  0  0  0
 90261  1  0  0  0  0
 91262  1  0  0  0  0
 92 93  1  0  0  0  0
 93 94  1  0  0  0  0
 93263  1  0  0  0  0
 93264  1  0  0  0  0
 94 95  1  0  0  0  0
 94 96  1  0  0  0  0
 94265  1  0  0  0  0
 95266  1  0  0  0  0
 95267  1  0  0  0  0
 95268  1  0  0  0  0
 96269  1  0  0  0  0
 97 98  1  0  0  0  0
 98 99  1  0  0  0  0
 98104  1  0  0  0  0
 98270  1  0  0  0  0
 99100  1  0  0  0  0
 99115  1  0  0  0  0
 99271  1  0  0  0  0
100101  1  0  0  0  0
101102  1  0  0  0  0
101103  1  0  0  0  0
101272  1  0  0  0  0
103104  1  0  0  0  0
103110  1  0  0  0  0
103273  1  0  0  0  0
104105  1  0  0  0  0
104274  1  0  0  0  0
105106  1  0  0  0  0
106107  1  0  0  0  0
106275  1  0  0  0  0
106276  1  0  0  0  0
107108  1  0  0  0  0
107109  1  0  0  0  0
107277  1  0  0  0  0
108278  1  0  0  0  0
108279  1  0  0  0  0
108280  1  0  0  0  0
109281  1  0  0  0  0
110111  1  0  0  0  0
111112  1  0  0  0  0
111282  1  0  0  0  0
111283  1  0  0  0  0
112113  1  0  0  0  0
112114  1  0  0  0  0
112284  1  0  0  0  0
113285  1  0  0  0  0
113286  1  0  0  0  0
113287  1  0  0  0  0
114288  1  0  0  0  0
115116  1  0  0  0  0
115289  1  0  0  0  0
115290  1  0  0  0  0
116117  1  0  0  0  0
117118  1  0  0  0  0
117291  1  0  0  0  0
117292  1  0  0  0  0
118119  1  0  0  0  0
118120  1  0  0  0  0
118293  1  0  0  0  0
119294  1  0  0  0  0
119295  1  0  0  0  0
119296  1  0  0  0  0
120297  1  0  0  0  0
121122  1  0  0  0  0
121298  1  0  0  0  0
121299  1  0  0  0  0
122123  1  0  0  0  0
123124  1  0  0  0  0
123300  1  0  0  0  0
123301  1  0  0  0  0
124125  1  0  0  0  0
124126  1  0  0  0  0
124302  1  0  0  0  0
125303  1  0  0  0  0
125304  1  0  0  0  0
125305  1  0  0  0  0
126306  1  0  0  0  0
127128  1  0  0  0  0
127307  1  0  0  0  0
127308  1  0  0  0  0
128129  1  0  0  0  0
129130  1  0  0  0  0
129309  1  0  0  0  0
129310  1  0  0  0  0
130131  1  0  0  0  0
130132  1  0  0  0  0
130311  1  0  0  0  0
131312  1  0  0  0  0
131313  1  0  0  0  0
131314  1  0  0  0  0
132315  1  0  0  0  0
133134  1  0  0  0  0
133316  1  0  0  0  0
133317  1  0  0  0  0
134135  1  0  0  0  0
135136  1  0  0  0  0
135318  1  0  0  0  0
135319  1  0  0  0  0
136137  1  0  0  0  0
136138  1  0  0  0  0
136320  1  0  0  0  0
137321  1  0  0  0  0
137322  1  0  0  0  0
137323  1  0  0  0  0
138324  1  0  0  0  0
139140  1  0  0  0  0
139325  1  0  0  0  0
139326  1  0  0  0  0
140141  1  0  0  0  0
141142  1  0  0  0  0
141327  1  0  0  0  0
141328  1  0  0  0  0
142143  1  0  0  0  0
142144  1  0  0  0  0
142329  1  0  0  0  0
143330  1  0  0  0  0
143331  1  0  0  0  0
143332  1  0  0  0  0
144333  1  0  0  0  0
145146  1  0  0  0  0
145334  1  0  0  0  0
145335  1  0  0  0  0
146147  1  0  0  0  0
147148  1  0  0  0  0
147336  1  0  0  0  0
147337  1  0  0  0  0
148149  1  0  0  0  0
148150  1  0  0  0  0
148338  1  0  0  0  0
149339  1  0  0  0  0
149340  1  0  0  0  0
149341  1  0  0  0  0
150342  1  0  0  0  0
151152  1  0  0  0  0
152153  1  0  0  0  0
152343  1  0  0  0  0
152344  1  0  0  0  0
153154  1  0  0  0  0
153155  1  0  0  0  0
153345  1  0  0  0  0
154346  1  0  0  0  0
154347  1  0  0  0  0
154348  1  0  0  0  0
155349  1  0  0  0  0
156157  1  0  0  0  0
157158  1  0  0  0  0
157350  1  0  0  0  0
157351  1  0  0  0  0
158159  1  0  0  0  0
158160  1  0  0  0  0
158352  1  0  0  0  0
159353  1  0  0  0  0
159354  1  0  0  0  0
159355  1  0  0  0  0
160356  1  0  0  0  0
161357  1  0  0  0  0
M  END
