
 OpenBabel10072616273D

 32 32  0  0  0  0  0  0  0  0999 V2000
    1.0712   -0.3589    0.0213 C   0  0  0  0  0  0  0  0  0  0  0  0
    2.4495   -0.0893   -0.1920 O   0  0  0  0  0  0  0  0  0  0  0  0
    3.0307    0.8991    0.5583 C   0  0  0  0  0  0  0  0  0  0  0  0
    2.4296    1.4969    1.6684 C   0  0  0  0  0  0  0  0  0  0  0  0
    3.1195    2.4537    2.4149 C   0  0  0  0  0  0  0  0  0  0  0  0
    4.4246    2.8095    2.0744 C   0  0  0  0  0  0  0  0  0  0  0  0
    5.0609    2.2265    0.9702 C   0  0  0  0  0  0  0  0  0  0  0  0
    4.3361    1.2932    0.1962 C   0  0  0  0  0  0  0  0  0  0  0  0
    5.0023    0.7539   -0.8827 O   0  0  0  0  0  0  0  0  0  0  0  0
    4.2838    0.8866   -2.1082 C   0  0  0  0  0  0  0  0  0  0  0  0
    6.4731    2.5957    0.5573 C   0  0  0  0  0  0  0  0  0  0  0  0
    7.3086    3.3625    1.5840 C   0  0  0  0  0  0  0  0  0  0  0  0
    8.6827    3.5347    1.1485 N   0  0  0  0  0  0  0  0  0  0  0  0
    9.5153    4.3560    1.8500 C   0  0  0  0  0  0  0  0  0  0  0  0
    9.2045    5.0589    2.7995 O   0  0  0  0  0  0  0  0  0  0  0  0
   10.7831    4.3191    1.3688 N   0  0  0  0  0  0  0  0  0  0  0  0
    0.7766   -1.1430   -0.6822 H   0  0  0  0  0  0  0  0  0  0  0  0
    0.4624    0.5261   -0.1891 H   0  0  0  0  0  0  0  0  0  0  0  0
    0.8873   -0.7382    1.0310 H   0  0  0  0  0  0  0  0  0  0  0  0
    1.4279    1.2329    1.9900 H   0  0  0  0  0  0  0  0  0  0  0  0
    2.6444    2.9164    3.2773 H   0  0  0  0  0  0  0  0  0  0  0  0
    4.9280    3.5489    2.6925 H   0  0  0  0  0  0  0  0  0  0  0  0
    5.0118    1.0867   -2.8998 H   0  0  0  0  0  0  0  0  0  0  0  0
    3.5652    1.7149   -2.1043 H   0  0  0  0  0  0  0  0  0  0  0  0
    3.7830   -0.0548   -2.3516 H   0  0  0  0  0  0  0  0  0  0  0  0
    6.4145    3.1889   -0.3647 H   0  0  0  0  0  0  0  0  0  0  0  0
    7.0129    1.6711    0.3126 H   0  0  0  0  0  0  0  0  0  0  0  0
    7.3337    2.8316    2.5427 H   0  0  0  0  0  0  0  0  0  0  0  0
    6.8825    4.3568    1.7624 H   0  0  0  0  0  0  0  0  0  0  0  0
    9.1529    2.7108    0.7995 H   0  0  0  0  0  0  0  0  0  0  0  0
   10.8727    4.2600    0.3648 H   0  0  0  0  0  0  0  0  0  0  0  0
   11.3919    5.0015    1.8021 H   0  0  0  0  0  0  0  0  0  0  0  0
  1  2  1  0  0  0  0
  1 17  1  0  0  0  0
  1 18  1  0  0  0  0
  1 19  1  0  0  0  0
  2  3  1  0  0  0  0
  3  4  2  0  0  0  0
  3  8  1  0  0  0  0
  4  5  1  0  0  0  0
  4 20  1  0  0  0  0
  5  6  2  0  0  0  0
  5 21  1  0  0  0  0
  6  7  1  0  0  0  0
  6 22  1  0  0  0  0
  7  8  2  0  0  0  0
  7 11  1  0  0  0  0
  8  9  1  0  0  0  0
  9 10  1  0  0  0  0
 10 23  1  0  0  0  0
 10 24  1  0  0  0  0
 10 25  1  0  0  0  0
 11 12  1  0  0  0  0
 11 26  1  0  0  0  0
 11 27  1  0  0  0  0
 12 13  1  0  0  0  0
 12 28  1  0  0  0  0
 12 29  1  0  0  0  0
 13 14  1  0  0  0  0
 13 30  1  0  0  0  0
 14 15  2  0  0  0  0
 14 16  1  0  0  0  0
 16 31  1  0  0  0  0
 16 32  1  0  0  0  0
M  END
