
 OpenBabel10072619533D

 58 61  0  0  0  0  0  0  0  0999 V2000
    9.1148    3.8950    0.5279 C   0  0  0  0  0  0  0  0  0  0  0  0
    7.8474    3.2465    0.5487 O   0  0  0  0  0  0  0  0  0  0  0  0
    7.1471    3.3079   -0.6295 C   0  0  0  0  0  0  0  0  0  0  0  0
    6.9902    4.4499   -1.4356 C   0  0  0  0  0  0  0  0  0  0  0  0
    6.2196    4.3614   -2.6037 C   0  0  0  0  0  0  0  0  0  0  0  0
    5.5806    3.1655   -2.9431 C   0  0  0  0  0  0  0  0  0  0  0  0
    5.7407    2.0324   -2.1375 C   0  0  0  0  0  0  0  0  0  0  0  0
    6.5026    2.1145   -0.9701 C   0  0  0  0  0  0  0  0  0  0  0  0
    5.0517    0.7625   -2.5473 C   0  0  0  0  0  0  0  0  0  0  0  0
    5.0402    0.6810   -4.0724 C   0  0  0  0  0  0  0  0  0  0  0  0
    4.4182    1.8687   -4.6759 N   0  0  0  0  0  0  0  0  0  0  0  0
    4.6954    3.0182   -4.1409 C   0  0  0  0  0  0  0  0  0  0  0  0
    4.0068    4.2494   -4.7239 C   0  0  0  0  0  0  0  0  0  0  0  0
    2.7723    4.6158   -3.9318 C   0  0  0  0  0  0  0  0  0  0  0  0
    2.8067    5.6026   -2.9401 C   0  0  0  0  0  0  0  0  0  0  0  0
    1.6766    5.8723   -2.1569 C   0  0  0  0  0  0  0  0  0  0  0  0
    0.4943    5.1603   -2.3518 C   0  0  0  0  0  0  0  0  0  0  0  0
    0.4529    4.1877   -3.3583 C   0  0  0  0  0  0  0  0  0  0  0  0
    1.5810    3.9115   -4.1351 C   0  0  0  0  0  0  0  0  0  0  0  0
   -0.6694    5.3183   -1.5708 N   0  0  0  0  0  0  0  0  0  0  0  0
   -0.8388    6.0931   -0.4295 C   0  0  0  0  0  0  0  0  0  0  0  0
   -0.0114    6.8642    0.0316 O   0  0  0  0  0  0  0  0  0  0  0  0
   -2.0806    5.8318    0.1323 N   0  0  0  0  0  0  0  0  0  0  0  0
   -2.6292    6.2712    1.3648 C   0  0  0  0  0  0  0  0  0  0  0  0
   -1.9341    7.1465    2.2106 C   0  0  0  0  0  0  0  0  0  0  0  0
   -2.4737    7.5531    3.4380 C   0  0  0  0  0  0  0  0  0  0  0  0
   -3.7195    7.0941    3.8503 C   0  0  0  0  0  0  0  0  0  0  0  0
   -4.4373    6.2264    3.0327 C   0  0  0  0  0  0  0  0  0  0  0  0
   -3.9003    5.8166    1.7961 C   0  0  0  0  0  0  0  0  0  0  0  0
   -4.7131    4.8902    0.9854 N   0  3  0  0  0  0  0  0  0  0  0  0
   -4.2196    4.4369   -0.0627 O   0  0  0  0  0  0  0  0  0  0  0  0
   -5.8499    4.6104    1.3871 O   0  5  0  0  0  0  0  0  0  0  0  0
    7.6094    5.6017   -1.0275 O   0  0  0  0  0  0  0  0  0  0  0  0
    7.2305    6.8193   -1.6560 C   0  0  0  0  0  0  0  0  0  0  0  0
    9.7618    3.3774    1.2421 H   0  0  0  0  0  0  0  0  0  0  0  0
    9.0194    4.9306    0.8657 H   0  0  0  0  0  0  0  0  0  0  0  0
    9.6000    3.8426   -0.4532 H   0  0  0  0  0  0  0  0  0  0  0  0
    6.1251    5.2170   -3.2576 H   0  0  0  0  0  0  0  0  0  0  0  0
    6.6167    1.2466   -0.3245 H   0  0  0  0  0  0  0  0  0  0  0  0
    4.0273    0.7731   -2.1565 H   0  0  0  0  0  0  0  0  0  0  0  0
    5.5660   -0.1144   -2.1385 H   0  0  0  0  0  0  0  0  0  0  0  0
    4.4698   -0.2031   -4.3792 H   0  0  0  0  0  0  0  0  0  0  0  0
    6.0552    0.5625   -4.4725 H   0  0  0  0  0  0  0  0  0  0  0  0
    3.7185    4.0284   -5.7606 H   0  0  0  0  0  0  0  0  0  0  0  0
    4.6945    5.0968   -4.7941 H   0  0  0  0  0  0  0  0  0  0  0  0
    3.7150    6.1675   -2.7484 H   0  0  0  0  0  0  0  0  0  0  0  0
    1.7601    6.6346   -1.3893 H   0  0  0  0  0  0  0  0  0  0  0  0
   -0.4482    3.6071   -3.5372 H   0  0  0  0  0  0  0  0  0  0  0  0
    1.5364    3.1206   -4.8824 H   0  0  0  0  0  0  0  0  0  0  0  0
   -1.4440    4.7272   -1.8310 H   0  0  0  0  0  0  0  0  0  0  0  0
   -2.6651    5.1888   -0.3918 H   0  0  0  0  0  0  0  0  0  0  0  0
   -0.9564    7.5402    1.9461 H   0  0  0  0  0  0  0  0  0  0  0  0
   -1.9087    8.2324    4.0737 H   0  0  0  0  0  0  0  0  0  0  0  0
   -4.1295    7.4094    4.8071 H   0  0  0  0  0  0  0  0  0  0  0  0
   -5.4107    5.8774    3.3728 H   0  0  0  0  0  0  0  0  0  0  0  0
    7.6962    7.6387   -1.1006 H   0  0  0  0  0  0  0  0  0  0  0  0
    6.1460    6.9680   -1.6225 H   0  0  0  0  0  0  0  0  0  0  0  0
    7.6036    6.8607   -2.6846 H   0  0  0  0  0  0  0  0  0  0  0  0
  1  2  1  0  0  0  0
  1 35  1  0  0  0  0
  1 36  1  0  0  0  0
  1 37  1  0  0  0  0
  2  3  1  0  0  0  0
  3  4  2  0  0  0  0
  3  8  1  0  0  0  0
  4  5  1  0  0  0  0
  4 33  1  0  0  0  0
  5  6  2  0  0  0  0
  5 38  1  0  0  0  0
  6  7  1  0  0  0  0
  6 12  1  0  0  0  0
  7  8  2  0  0  0  0
  7  9  1  0  0  0  0
  8 39  1  0  0  0  0
  9 10  1  0  0  0  0
  9 40  1  0  0  0  0
  9 41  1  0  0  0  0
 10 11  1  0  0  0  0
 10 42  1  0  0  0  0
 10 43  1  0  0  0  0
 11 12  2  0  0  0  0
 12 13  1  0  0  0  0
 13 14  1  0  0  0  0
 13 44  1  0  0  0  0
 13 45  1  0  0  0  0
 14 15  2  0  0  0  0
 14 19  1  0  0  0  0
 15 16  1  0  0  0  0
 15 46  1  0  0  0  0
 16 17  2  0  0  0  0
 16 47  1  0  0  0  0
 17 18  1  0  0  0  0
 17 20  1  0  0  0  0
 18 19  2  0  0  0  0
 18 48  1  0  0  0  0
 19 49  1  0  0  0  0
 20 21  1  0  0  0  0
 20 50  1  0  0  0  0
 21 22  2  0  0  0  0
 21 23  1  0  0  0  0
 23 24  1  0  0  0  0
 23 51  1  0  0  0  0
 24 25  2  0  0  0  0
 24 29  1  0  0  0  0
 25 26  1  0  0  0  0
 25 52  1  0  0  0  0
 26 27  2  0  0  0  0
 26 53  1  0  0  0  0
 27 28  1  0  0  0  0
 27 54  1  0  0  0  0
 28 29  2  0  0  0  0
 28 55  1  0  0  0  0
 29 30  1  0  0  0  0
 30 31  2  0  0  0  0
 30 32  1  0  0  0  0
 33 34  1  0  0  0  0
 34 56  1  0  0  0  0
 34 57  1  0  0  0  0
 34 58  1  0  0  0  0
M  CHG  2  30   1  32  -1
M  END
