
 OpenBabel10072619543D

 45 47  0  0  0  0  0  0  0  0999 V2000
    1.0170   -0.3266   -0.2217 C   0  0  0  0  0  0  0  0  0  0  0  0
    2.5122   -0.1928   -0.0966 C   0  0  0  0  0  0  0  0  0  0  0  0
    3.2300   -1.4137   -0.1183 C   0  0  0  0  0  0  0  0  0  0  0  0
    4.6268   -1.4869   -0.0155 C   0  0  0  0  0  0  0  0  0  0  0  0
    5.3284   -0.2852    0.1141 C   0  0  0  0  0  0  0  0  0  0  0  0
    4.6170    0.9358    0.1464 C   0  0  0  0  0  0  0  0  0  0  0  0
    3.2105    1.0276    0.0410 C   0  0  0  0  0  0  0  0  0  0  0  0
    2.6171    2.3939    0.0857 C   0  0  0  0  0  0  0  0  0  0  0  0
    3.4179    3.4589    0.2511 C   0  0  0  0  0  0  0  0  0  0  0  0
    4.8669    3.3732    0.4057 C   0  0  0  0  0  0  0  0  0  0  0  0
    5.5558    4.3629    0.6144 O   0  0  0  0  0  0  0  0  0  0  0  0
    5.3972    2.1077    0.3231 O   0  0  0  0  0  0  0  0  0  0  0  0
    1.1442    2.6536   -0.0468 C   0  0  0  0  0  0  0  0  0  0  0  0
    7.1097   -0.2166    0.2243 S   0  0  0  0  0  0  0  0  0  0  0  0
    7.6782   -1.5398    0.3512 O   0  0  0  0  0  0  0  0  0  0  0  0
    7.5636    0.6601   -0.8372 O   0  0  0  0  0  0  0  0  0  0  0  0
    7.4055    0.5948    1.6520 N   0  0  0  0  0  0  0  0  0  0  0  0
    6.8712    0.2167    2.8794 C   0  0  0  0  0  0  0  0  0  0  0  0
    6.1711   -0.7748    2.9912 O   0  0  0  0  0  0  0  0  0  0  0  0
    7.2062    1.0970    3.8749 N   0  0  0  0  0  0  0  0  0  0  0  0
    6.8214    1.0524    5.2316 C   0  0  0  0  0  0  0  0  0  0  0  0
    5.9780    0.0800    5.7749 C   0  0  0  0  0  0  0  0  0  0  0  0
    5.6465    0.1065    7.1339 C   0  0  0  0  0  0  0  0  0  0  0  0
    6.1520    1.1059    7.9607 C   0  0  0  0  0  0  0  0  0  0  0  0
    6.9897    2.0822    7.4295 C   0  0  0  0  0  0  0  0  0  0  0  0
    7.3232    2.0553    6.0723 C   0  0  0  0  0  0  0  0  0  0  0  0
    5.2639   -2.8477   -0.0360 C   0  0  0  0  0  0  0  0  0  0  0  0
    0.7096   -1.3757   -0.3007 H   0  0  0  0  0  0  0  0  0  0  0  0
    0.6594    0.1622   -1.1309 H   0  0  0  0  0  0  0  0  0  0  0  0
    0.5156    0.0648    0.6663 H   0  0  0  0  0  0  0  0  0  0  0  0
    2.6719   -2.3468   -0.2162 H   0  0  0  0  0  0  0  0  0  0  0  0
    3.0313    4.4723    0.2903 H   0  0  0  0  0  0  0  0  0  0  0  0
    0.5847    2.1836    0.7658 H   0  0  0  0  0  0  0  0  0  0  0  0
    0.7685    2.3179   -1.0170 H   0  0  0  0  0  0  0  0  0  0  0  0
    0.9101    3.7238    0.0126 H   0  0  0  0  0  0  0  0  0  0  0  0
    7.8073    1.5104    1.4969 H   0  0  0  0  0  0  0  0  0  0  0  0
    7.8261    1.8471    3.6121 H   0  0  0  0  0  0  0  0  0  0  0  0
    5.5570   -0.7186    5.1720 H   0  0  0  0  0  0  0  0  0  0  0  0
    4.9945   -0.6601    7.5457 H   0  0  0  0  0  0  0  0  0  0  0  0
    5.8942    1.1220    9.0166 H   0  0  0  0  0  0  0  0  0  0  0  0
    7.3877    2.8631    8.0721 H   0  0  0  0  0  0  0  0  0  0  0  0
    7.9813    2.8295    5.6860 H   0  0  0  0  0  0  0  0  0  0  0  0
    4.5173   -3.6415   -0.1542 H   0  0  0  0  0  0  0  0  0  0  0  0
    5.7777   -3.0455    0.9094 H   0  0  0  0  0  0  0  0  0  0  0  0
    5.9537   -2.9381   -0.8804 H   0  0  0  0  0  0  0  0  0  0  0  0
  1  2  1  0  0  0  0
  1 28  1  0  0  0  0
  1 29  1  0  0  0  0
  1 30  1  0  0  0  0
  2  3  2  0  0  0  0
  2  7  1  0  0  0  0
  3  4  1  0  0  0  0
  3 31  1  0  0  0  0
  4  5  2  0  0  0  0
  4 27  1  0  0  0  0
  5  6  1  0  0  0  0
  5 14  1  0  0  0  0
  6  7  2  0  0  0  0
  6 12  1  0  0  0  0
  7  8  1  0  0  0  0
  8  9  2  0  0  0  0
  8 13  1  0  0  0  0
  9 10  1  0  0  0  0
  9 32  1  0  0  0  0
 10 11  2  0  0  0  0
 10 12  1  0  0  0  0
 13 33  1  0  0  0  0
 13 34  1  0  0  0  0
 13 35  1  0  0  0  0
 14 15  2  0  0  0  0
 14 16  2  0  0  0  0
 14 17  1  0  0  0  0
 17 18  1  0  0  0  0
 17 36  1  0  0  0  0
 18 19  2  0  0  0  0
 18 20  1  0  0  0  0
 20 21  1  0  0  0  0
 20 37  1  0  0  0  0
 21 22  2  0  0  0  0
 21 26  1  0  0  0  0
 22 23  1  0  0  0  0
 22 38  1  0  0  0  0
 23 24  2  0  0  0  0
 23 39  1  0  0  0  0
 24 25  1  0  0  0  0
 24 40  1  0  0  0  0
 25 26  2  0  0  0  0
 25 41  1  0  0  0  0
 26 42  1  0  0  0  0
 27 43  1  0  0  0  0
 27 44  1  0  0  0  0
 27 45  1  0  0  0  0
M  END
