
 OpenBabel10072620033D

 34 34  0  0  0  0  0  0  0  0999 V2000
    4.2020    0.5007   -2.6288 C   0  0  0  0  0  0  0  0  0  0  0  0
    4.0270    1.2209   -1.4159 O   0  0  0  0  0  0  0  0  0  0  0  0
    4.0792    2.6303   -1.6295 C   0  0  0  0  0  0  0  0  0  0  0  0
    3.8493    3.3543   -0.3082 C   0  0  0  0  0  0  0  0  0  0  0  0
    4.8487    2.9671    0.7822 C   0  0  0  0  0  0  0  0  0  0  0  0
    6.2415    3.1945    0.4069 N   0  0  0  0  0  0  0  0  0  0  0  0
    6.9412    4.3824    0.4464 C   0  0  0  0  0  0  0  0  0  0  0  0
    6.3093    5.8527    0.9206 S   0  0  0  0  0  0  0  0  0  0  0  0
    8.2397    4.1788    0.0227 N   0  0  0  0  0  0  0  0  0  0  0  0
    9.2782    5.2031   -0.0114 C   0  0  0  0  0  0  0  0  0  0  0  0
   10.5231    4.7141   -0.6987 C   0  0  0  0  0  0  0  0  0  0  0  0
   10.4649    4.1016   -1.9611 C   0  0  0  0  0  0  0  0  0  0  0  0
   11.6341    3.6950   -2.6084 C   0  0  0  0  0  0  0  0  0  0  0  0
   12.8760    3.9053   -2.0085 C   0  0  0  0  0  0  0  0  0  0  0  0
   12.9471    4.5184   -0.7594 C   0  0  0  0  0  0  0  0  0  0  0  0
   11.7780    4.9198   -0.1185 C   0  0  0  0  0  0  0  0  0  0  0  0
   11.8749    5.5155    1.0785 F   0  0  0  0  0  0  0  0  0  0  0  0
    4.1678   -0.5679   -2.4010 H   0  0  0  0  0  0  0  0  0  0  0  0
    5.1742    0.7322   -3.0740 H   0  0  0  0  0  0  0  0  0  0  0  0
    3.3984    0.7347   -3.3335 H   0  0  0  0  0  0  0  0  0  0  0  0
    3.2987    2.9207   -2.3423 H   0  0  0  0  0  0  0  0  0  0  0  0
    5.0529    2.9030   -2.0525 H   0  0  0  0  0  0  0  0  0  0  0  0
    2.8452    3.1114    0.0609 H   0  0  0  0  0  0  0  0  0  0  0  0
    3.8747    4.4339   -0.4898 H   0  0  0  0  0  0  0  0  0  0  0  0
    4.7597    1.9020    1.0251 H   0  0  0  0  0  0  0  0  0  0  0  0
    4.6300    3.5254    1.6983 H   0  0  0  0  0  0  0  0  0  0  0  0
    6.6726    2.4341   -0.0982 H   0  0  0  0  0  0  0  0  0  0  0  0
    8.5819    3.2364    0.1418 H   0  0  0  0  0  0  0  0  0  0  0  0
    9.4822    5.4845    1.0273 H   0  0  0  0  0  0  0  0  0  0  0  0
    8.9018    6.0871   -0.5381 H   0  0  0  0  0  0  0  0  0  0  0  0
    9.5042    3.9456   -2.4485 H   0  0  0  0  0  0  0  0  0  0  0  0
   11.5766    3.2204   -3.5851 H   0  0  0  0  0  0  0  0  0  0  0  0
   13.7856    3.5966   -2.5166 H   0  0  0  0  0  0  0  0  0  0  0  0
   13.9060    4.6907   -0.2805 H   0  0  0  0  0  0  0  0  0  0  0  0
  1  2  1  0  0  0  0
  1 18  1  0  0  0  0
  1 19  1  0  0  0  0
  1 20  1  0  0  0  0
  2  3  1  0  0  0  0
  3  4  1  0  0  0  0
  3 21  1  0  0  0  0
  3 22  1  0  0  0  0
  4  5  1  0  0  0  0
  4 23  1  0  0  0  0
  4 24  1  0  0  0  0
  5  6  1  0  0  0  0
  5 25  1  0  0  0  0
  5 26  1  0  0  0  0
  6  7  1  0  0  0  0
  6 27  1  0  0  0  0
  7  8  2  0  0  0  0
  7  9  1  0  0  0  0
  9 10  1  0  0  0  0
  9 28  1  0  0  0  0
 10 11  1  0  0  0  0
 10 29  1  0  0  0  0
 10 30  1  0  0  0  0
 11 12  2  0  0  0  0
 11 16  1  0  0  0  0
 12 13  1  0  0  0  0
 12 31  1  0  0  0  0
 13 14  2  0  0  0  0
 13 32  1  0  0  0  0
 14 15  1  0  0  0  0
 14 33  1  0  0  0  0
 15 16  2  0  0  0  0
 15 34  1  0  0  0  0
 16 17  1  0  0  0  0
M  END
