
 OpenBabel10072619543D

139140  0  0  0  0  0  0  0  0999 V2000
   16.0741   14.7168  -12.8776 C   0  0  0  0  0  0  0  0  0  0  0  0
   15.7530   13.2984  -13.3197 C   0  0  0  0  0  0  0  0  0  0  0  0
   16.4328   12.2588  -12.4288 C   0  0  0  0  0  0  0  0  0  0  0  0
   16.0990   10.8373  -12.8872 C   0  0  0  0  0  0  0  0  0  0  0  0
   16.7748    9.7896  -12.0015 C   0  0  0  0  0  0  0  0  0  0  0  0
   16.4390    8.3687  -12.4600 C   0  0  0  0  0  0  0  0  0  0  0  0
   17.1168    7.3269  -11.5685 C   0  0  0  0  0  0  0  0  0  0  0  0
   16.7852    5.9027  -12.0171 C   0  0  0  0  0  0  0  0  0  0  0  0
   17.4680    4.8706  -11.1190 C   0  0  0  0  0  0  0  0  0  0  0  0
   17.1479    3.4423  -11.5633 C   0  0  0  0  0  0  0  0  0  0  0  0
   17.8473    2.4220  -10.6648 C   0  0  0  0  0  0  0  0  0  0  0  0
   17.5516    0.9852  -11.0978 C   0  0  0  0  0  0  0  0  0  0  0  0
   18.2821   -0.0152  -10.1994 C   0  0  0  0  0  0  0  0  0  0  0  0
   17.9834   -1.4610  -10.6012 C   0  0  0  0  0  0  0  0  0  0  0  0
   18.7236   -2.4496   -9.6977 C   0  0  0  0  0  0  0  0  0  0  0  0
   18.3973   -3.9017  -10.0585 C   0  0  0  0  0  0  0  0  0  0  0  0
   19.1254   -4.8739   -9.1230 C   0  0  0  0  0  0  0  0  0  0  0  0
   18.7576   -6.3410   -9.3749 C   0  0  0  0  0  0  0  0  0  0  0  0
   19.1880   -6.8080  -10.7080 N   0  0  0  0  0  0  0  0  0  0  0  0
   18.2604   -7.7624  -11.3544 C   0  0  0  0  0  0  0  0  0  0  0  0
   17.0466   -7.0267  -11.9329 C   0  0  0  0  0  0  0  0  0  0  0  0
   16.0120   -8.0069  -12.4940 C   0  0  0  0  0  0  0  0  0  0  0  0
   14.6860   -7.2983  -12.7730 C   0  0  0  0  0  0  0  0  0  0  0  0
   13.6361   -8.2518  -13.3477 C   0  0  0  0  0  0  0  0  0  0  0  0
   12.2665   -7.5734  -13.4026 C   0  0  0  0  0  0  0  0  0  0  0  0
   11.2053   -8.4662  -14.0480 C   0  0  0  0  0  0  0  0  0  0  0  0
    9.8311   -7.7943  -13.9959 C   0  0  0  0  0  0  0  0  0  0  0  0
    8.7509   -8.6358  -14.6799 C   0  0  0  0  0  0  0  0  0  0  0  0
    7.3895   -7.9383  -14.6056 C   0  0  0  0  0  0  0  0  0  0  0  0
    6.2922   -8.7449  -15.3052 C   0  0  0  0  0  0  0  0  0  0  0  0
    4.9482   -8.0163  -15.2342 C   0  0  0  0  0  0  0  0  0  0  0  0
    3.8350   -8.7957  -15.9376 C   0  0  0  0  0  0  0  0  0  0  0  0
    2.5094   -8.0363  -15.8574 C   0  0  0  0  0  0  0  0  0  0  0  0
    1.3770   -8.7899  -16.5538 C   0  0  0  0  0  0  0  0  0  0  0  0
    0.0640   -8.0105  -16.4590 C   0  0  0  0  0  0  0  0  0  0  0  0
   -1.0746   -8.7574  -17.1508 C   0  0  0  0  0  0  0  0  0  0  0  0
   -2.3821   -7.9875  -17.0580 C   0  0  0  0  0  0  0  0  0  0  0  0
   20.5500   -7.0310  -10.9584 C   0  0  0  0  0  0  0  0  0  0  0  0
   21.5188   -7.1234   -9.9502 C   0  0  0  0  0  0  0  0  0  0  0  0
   22.8769   -7.3250  -10.2388 C   0  0  0  0  0  0  0  0  0  0  0  0
   23.3196   -7.4486  -11.5572 C   0  0  0  0  0  0  0  0  0  0  0  0
   22.3750   -7.3307  -12.5786 C   0  0  0  0  0  0  0  0  0  0  0  0
   21.0187   -7.1261  -12.2795 C   0  0  0  0  0  0  0  0  0  0  0  0
   24.7422   -7.6188  -11.8992 C   0  0  0  0  0  0  0  0  0  0  0  0
   25.6118   -8.3072  -11.1395 C   0  0  0  0  0  0  0  0  0  0  0  0
   27.0405   -8.4947  -11.4324 C   0  0  0  0  0  0  0  0  0  0  0  0
   27.7817   -7.6116  -12.2173 C   0  0  0  0  0  0  0  0  0  0  0  0
   29.1419   -7.8302  -12.4132 C   0  0  0  0  0  0  0  0  0  0  0  0
   29.7582   -8.8873  -11.8411 N   0  3  0  0  0  0  0  0  0  0  0  0
   29.0666   -9.7531  -11.0683 C   0  0  0  0  0  0  0  0  0  0  0  0
   27.7062   -9.5726  -10.8466 C   0  0  0  0  0  0  0  0  0  0  0  0
   31.2005   -9.1040  -12.0406 C   0  0  0  0  0  0  0  0  0  0  0  0
   15.5752   15.4382  -13.5321 H   0  0  0  0  0  0  0  0  0  0  0  0
   17.1508   14.9083  -12.9209 H   0  0  0  0  0  0  0  0  0  0  0  0
   15.7333   14.8965  -11.8533 H   0  0  0  0  0  0  0  0  0  0  0  0
   16.0760   13.1651  -14.3586 H   0  0  0  0  0  0  0  0  0  0  0  0
   14.6667   13.1533  -13.2968 H   0  0  0  0  0  0  0  0  0  0  0  0
   16.1098   12.3959  -11.3896 H   0  0  0  0  0  0  0  0  0  0  0  0
   17.5193   12.4074  -12.4518 H   0  0  0  0  0  0  0  0  0  0  0  0
   16.4219   10.7017  -13.9265 H   0  0  0  0  0  0  0  0  0  0  0  0
   15.0123   10.6903  -12.8643 H   0  0  0  0  0  0  0  0  0  0  0  0
   16.4527    9.9244  -10.9617 H   0  0  0  0  0  0  0  0  0  0  0  0
   17.8617    9.9347  -12.0248 H   0  0  0  0  0  0  0  0  0  0  0  0
   16.7627    8.2303  -13.4988 H   0  0  0  0  0  0  0  0  0  0  0  0
   15.3524    8.2209  -12.4371 H   0  0  0  0  0  0  0  0  0  0  0  0
   16.7947    7.4681  -10.5295 H   0  0  0  0  0  0  0  0  0  0  0  0
   18.2034    7.4751  -11.5929 H   0  0  0  0  0  0  0  0  0  0  0  0
   17.1091    5.7587  -13.0550 H   0  0  0  0  0  0  0  0  0  0  0  0
   15.6991    5.7514  -11.9921 H   0  0  0  0  0  0  0  0  0  0  0  0
   17.1427    5.0144  -10.0811 H   0  0  0  0  0  0  0  0  0  0  0  0
   18.5537    5.0271  -11.1410 H   0  0  0  0  0  0  0  0  0  0  0  0
   17.4680    3.2997  -12.6026 H   0  0  0  0  0  0  0  0  0  0  0  0
   16.0636    3.2810  -11.5321 H   0  0  0  0  0  0  0  0  0  0  0  0
   17.5209    2.5653   -9.6275 H   0  0  0  0  0  0  0  0  0  0  0  0
   18.9300    2.5954  -10.6887 H   0  0  0  0  0  0  0  0  0  0  0  0
   17.8631    0.8408  -12.1393 H   0  0  0  0  0  0  0  0  0  0  0  0
   16.4711    0.8028  -11.0542 H   0  0  0  0  0  0  0  0  0  0  0  0
   17.9818    0.1441   -9.1563 H   0  0  0  0  0  0  0  0  0  0  0  0
   19.3627    0.1656  -10.2549 H   0  0  0  0  0  0  0  0  0  0  0  0
   18.2807   -1.6234  -11.6441 H   0  0  0  0  0  0  0  0  0  0  0  0
   16.9037   -1.6428  -10.5387 H   0  0  0  0  0  0  0  0  0  0  0  0
   18.4509   -2.2636   -8.6515 H   0  0  0  0  0  0  0  0  0  0  0  0
   19.8046   -2.2843   -9.7825 H   0  0  0  0  0  0  0  0  0  0  0  0
   18.6853   -4.0930  -11.0990 H   0  0  0  0  0  0  0  0  0  0  0  0
   17.3147   -4.0613   -9.9855 H   0  0  0  0  0  0  0  0  0  0  0  0
   18.8588   -4.6331   -8.0862 H   0  0  0  0  0  0  0  0  0  0  0  0
   20.2063   -4.7195   -9.2112 H   0  0  0  0  0  0  0  0  0  0  0  0
   17.6695   -6.4321   -9.2729 H   0  0  0  0  0  0  0  0  0  0  0  0
   19.1583   -6.9875   -8.5852 H   0  0  0  0  0  0  0  0  0  0  0  0
   17.9327   -8.4979  -10.6083 H   0  0  0  0  0  0  0  0  0  0  0  0
   18.7330   -8.3412  -12.1569 H   0  0  0  0  0  0  0  0  0  0  0  0
   17.3713   -6.3360  -12.7210 H   0  0  0  0  0  0  0  0  0  0  0  0
   16.5744   -6.4098  -11.1605 H   0  0  0  0  0  0  0  0  0  0  0  0
   15.8389   -8.8150  -11.7723 H   0  0  0  0  0  0  0  0  0  0  0  0
   16.3977   -8.4675  -13.4115 H   0  0  0  0  0  0  0  0  0  0  0  0
   14.8478   -6.4678  -13.4713 H   0  0  0  0  0  0  0  0  0  0  0  0
   14.3105   -6.8640  -11.8375 H   0  0  0  0  0  0  0  0  0  0  0  0
   13.5676   -9.1532  -12.7266 H   0  0  0  0  0  0  0  0  0  0  0  0
   13.9404   -8.5713  -14.3516 H   0  0  0  0  0  0  0  0  0  0  0  0
   12.3414   -6.6336  -13.9628 H   0  0  0  0  0  0  0  0  0  0  0  0
   11.9530   -7.3150  -12.3835 H   0  0  0  0  0  0  0  0  0  0  0  0
   11.1632   -9.4309  -13.5289 H   0  0  0  0  0  0  0  0  0  0  0  0
   11.4800   -8.6694  -15.0897 H   0  0  0  0  0  0  0  0  0  0  0  0
    9.8867   -6.8114  -14.4797 H   0  0  0  0  0  0  0  0  0  0  0  0
    9.5511   -7.6217  -12.9492 H   0  0  0  0  0  0  0  0  0  0  0  0
    8.6884   -9.6203  -14.2006 H   0  0  0  0  0  0  0  0  0  0  0  0
    9.0241   -8.8003  -15.7293 H   0  0  0  0  0  0  0  0  0  0  0  0
    7.4628   -6.9457  -15.0672 H   0  0  0  0  0  0  0  0  0  0  0  0
    7.1157   -7.7842  -13.5544 H   0  0  0  0  0  0  0  0  0  0  0  0
    6.2036   -9.7309  -14.8338 H   0  0  0  0  0  0  0  0  0  0  0  0
    6.5674   -8.9087  -16.3540 H   0  0  0  0  0  0  0  0  0  0  0  0
    5.0460   -7.0255  -15.6949 H   0  0  0  0  0  0  0  0  0  0  0  0
    4.6749   -7.8568  -14.1838 H   0  0  0  0  0  0  0  0  0  0  0  0
    3.7247   -9.7833  -15.4738 H   0  0  0  0  0  0  0  0  0  0  0  0
    4.1047   -8.9583  -16.9881 H   0  0  0  0  0  0  0  0  0  0  0  0
    2.6263   -7.0479  -16.3184 H   0  0  0  0  0  0  0  0  0  0  0  0
    2.2452   -7.8723  -14.8056 H   0  0  0  0  0  0  0  0  0  0  0  0
    1.2524   -9.7779  -16.0944 H   0  0  0  0  0  0  0  0  0  0  0  0
    1.6333   -8.9520  -17.6078 H   0  0  0  0  0  0  0  0  0  0  0  0
    0.1881   -7.0221  -16.9184 H   0  0  0  0  0  0  0  0  0  0  0  0
   -0.1914   -7.8456  -15.4049 H   0  0  0  0  0  0  0  0  0  0  0  0
   -1.2048   -9.7444  -16.6922 H   0  0  0  0  0  0  0  0  0  0  0  0
   -0.8262   -8.9192  -18.2061 H   0  0  0  0  0  0  0  0  0  0  0  0
   -2.6748   -7.8360  -16.0141 H   0  0  0  0  0  0  0  0  0  0  0  0
   -3.1829   -8.5400  -17.5592 H   0  0  0  0  0  0  0  0  0  0  0  0
   -2.2945   -7.0066  -17.5362 H   0  0  0  0  0  0  0  0  0  0  0  0
   21.2468   -7.0461   -8.9025 H   0  0  0  0  0  0  0  0  0  0  0  0
   23.5733   -7.3666   -9.4056 H   0  0  0  0  0  0  0  0  0  0  0  0
   22.6716   -7.3922  -13.6229 H   0  0  0  0  0  0  0  0  0  0  0  0
   20.3227   -7.0100  -13.1077 H   0  0  0  0  0  0  0  0  0  0  0  0
   25.0428   -7.1557  -12.8348 H   0  0  0  0  0  0  0  0  0  0  0  0
   25.2561   -8.7971  -10.2337 H   0  0  0  0  0  0  0  0  0  0  0  0
   27.3195   -6.7396  -12.6749 H   0  0  0  0  0  0  0  0  0  0  0  0
   29.7418   -7.1590  -13.0215 H   0  0  0  0  0  0  0  0  0  0  0  0
   29.6130  -10.5844  -10.6310 H   0  0  0  0  0  0  0  0  0  0  0  0
   27.1722  -10.2824  -10.2165 H   0  0  0  0  0  0  0  0  0  0  0  0
   31.6048   -8.3413  -12.7101 H   0  0  0  0  0  0  0  0  0  0  0  0
   31.3315  -10.0960  -12.4805 H   0  0  0  0  0  0  0  0  0  0  0  0
   31.6844   -9.0394  -11.0622 H   0  0  0  0  0  0  0  0  0  0  0  0
  1  2  1  0  0  0  0
  1 53  1  0  0  0  0
  1 54  1  0  0  0  0
  1 55  1  0  0  0  0
  2  3  1  0  0  0  0
  2 56  1  0  0  0  0
  2 57  1  0  0  0  0
  3  4  1  0  0  0  0
  3 58  1  0  0  0  0
  3 59  1  0  0  0  0
  4  5  1  0  0  0  0
  4 60  1  0  0  0  0
  4 61  1  0  0  0  0
  5  6  1  0  0  0  0
  5 62  1  0  0  0  0
  5 63  1  0  0  0  0
  6  7  1  0  0  0  0
  6 64  1  0  0  0  0
  6 65  1  0  0  0  0
  7  8  1  0  0  0  0
  7 66  1  0  0  0  0
  7 67  1  0  0  0  0
  8  9  1  0  0  0  0
  8 68  1  0  0  0  0
  8 69  1  0  0  0  0
  9 10  1  0  0  0  0
  9 70  1  0  0  0  0
  9 71  1  0  0  0  0
 10 11  1  0  0  0  0
 10 72  1  0  0  0  0
 10 73  1  0  0  0  0
 11 12  1  0  0  0  0
 11 74  1  0  0  0  0
 11 75  1  0  0  0  0
 12 13  1  0  0  0  0
 12 76  1  0  0  0  0
 12 77  1  0  0  0  0
 13 14  1  0  0  0  0
 13 78  1  0  0  0  0
 13 79  1  0  0  0  0
 14 15  1  0  0  0  0
 14 80  1  0  0  0  0
 14 81  1  0  0  0  0
 15 16  1  0  0  0  0
 15 82  1  0  0  0  0
 15 83  1  0  0  0  0
 16 17  1  0  0  0  0
 16 84  1  0  0  0  0
 16 85  1  0  0  0  0
 17 18  1  0  0  0  0
 17 86  1  0  0  0  0
 17 87  1  0  0  0  0
 18 19  1  0  0  0  0
 18 88  1  0  0  0  0
 18 89  1  0  0  0  0
 19 20  1  0  0  0  0
 19 38  1  0  0  0  0
 20 21  1  0  0  0  0
 20 90  1  0  0  0  0
 20 91  1  0  0  0  0
 21 22  1  0  0  0  0
 21 92  1  0  0  0  0
 21 93  1  0  0  0  0
 22 23  1  0  0  0  0
 22 94  1  0  0  0  0
 22 95  1  0  0  0  0
 23 24  1  0  0  0  0
 23 96  1  0  0  0  0
 23 97  1  0  0  0  0
 24 25  1  0  0  0  0
 24 98  1  0  0  0  0
 24 99  1  0  0  0  0
 25 26  1  0  0  0  0
 25100  1  0  0  0  0
 25101  1  0  0  0  0
 26 27  1  0  0  0  0
 26102  1  0  0  0  0
 26103  1  0  0  0  0
 27 28  1  0  0  0  0
 27104  1  0  0  0  0
 27105  1  0  0  0  0
 28 29  1  0  0  0  0
 28106  1  0  0  0  0
 28107  1  0  0  0  0
 29 30  1  0  0  0  0
 29108  1  0  0  0  0
 29109  1  0  0  0  0
 30 31  1  0  0  0  0
 30110  1  0  0  0  0
 30111  1  0  0  0  0
 31 32  1  0  0  0  0
 31112  1  0  0  0  0
 31113  1  0  0  0  0
 32 33  1  0  0  0  0
 32114  1  0  0  0  0
 32115  1  0  0  0  0
 33 34  1  0  0  0  0
 33116  1  0  0  0  0
 33117  1  0  0  0  0
 34 35  1  0  0  0  0
 34118  1  0  0  0  0
 34119  1  0  0  0  0
 35 36  1  0  0  0  0
 35120  1  0  0  0  0
 35121  1  0  0  0  0
 36 37  1  0  0  0  0
 36122  1  0  0  0  0
 36123  1  0  0  0  0
 37124  1  0  0  0  0
 37125  1  0  0  0  0
 37126  1  0  0  0  0
 38 39  2  0  0  0  0
 38 43  1  0  0  0  0
 39 40  1  0  0  0  0
 39127  1  0  0  0  0
 40 41  2  0  0  0  0
 40128  1  0  0  0  0
 41 42  1  0  0  0  0
 41 44  1  0  0  0  0
 42 43  2  0  0  0  0
 42129  1  0  0  0  0
 43130  1  0  0  0  0
 44 45  2  3  0  0  0
 44131  1  0  0  0  0
 45 46  1  0  0  0  0
 45132  1  0  0  0  0
 46 47  2  0  0  0  0
 46 51  1  0  0  0  0
 47 48  1  0  0  0  0
 47133  1  0  0  0  0
 48 49  2  0  0  0  0
 48134  1  0  0  0  0
 49 50  1  0  0  0  0
 49 52  1  0  0  0  0
 50 51  2  0  0  0  0
 50135  1  0  0  0  0
 51136  1  0  0  0  0
 52137  1  0  0  0  0
 52138  1  0  0  0  0
 52139  1  0  0  0  0
M  CHG  1  49   1
M  END
