
 OpenBabel10072619423D

 95 99  0  0  1  0  0  0  0  0999 V2000
    4.3356   -0.7664   -2.0249 C   0  0  0  0  0  0  0  0  0  0  0  0
    4.5352   -0.8355   -0.4961 C   0  0  0  0  0  0  0  0  0  0  0  0
    5.7421   -1.7394   -0.1901 C   0  0  0  0  0  0  0  0  0  0  0  0
    4.8756    0.5898   -0.0002 C   0  0  0  0  0  0  0  0  0  0  0  0
    3.2096   -1.3007    0.1825 C   0  0  1  0  0  0  0  0  0  0  0  0
    2.6268   -2.6392   -0.3561 C   0  0  0  0  0  0  0  0  0  0  0  0
    3.3346   -3.6438   -0.5070 O   0  0  0  0  0  0  0  0  0  0  0  0
    1.2619   -2.7397   -0.5342 N   0  0  0  0  0  0  0  0  0  0  0  0
    0.2803   -1.6796   -0.4049 C   0  0  0  0  0  0  0  0  0  0  0  0
   -1.0824   -2.3540   -0.2349 C   0  0  1  0  0  0  0  0  0  0  0  0
   -0.8479   -3.8410   -0.5322 C   0  0  0  0  0  0  0  0  0  0  0  0
    0.6274   -3.9977   -0.8983 C   0  0  1  0  0  0  0  0  0  0  0  0
    0.8158   -4.3082   -2.3929 C   0  0  0  0  0  0  0  0  0  0  0  0
   -0.0496   -4.1313   -3.2514 O   0  0  0  0  0  0  0  0  0  0  0  0
    2.0604   -4.7940   -2.7187 N   0  0  0  0  0  0  0  0  0  0  0  0
    2.3795   -5.3293   -4.0294 C   0  0  3  0  0  0  0  0  0  0  0  0
    1.8238   -6.7003   -4.3882 C   0  0  0  0  0  0  0  0  0  0  0  0
    3.2930   -6.5575   -4.1259 C   0  0  2  0  0  0  0  0  0  0  0  0
    3.8511   -7.1877   -2.9212 C   0  0  0  0  0  0  0  0  0  0  0  0
    4.9059   -6.7455   -2.2236 C   0  0  0  0  0  0  0  0  0  0  0  0
    2.4644   -4.3254   -5.1630 C   0  0  0  0  0  0  0  0  0  0  0  0
    3.4902   -4.1379   -5.8005 O   0  0  0  0  0  0  0  0  0  0  0  0
    1.2956   -3.6939   -5.4288 O   0  0  0  0  0  0  0  0  0  0  0  0
   -1.5292   -2.2999    1.1266 O   0  0  0  0  0  0  0  0  0  0  0  0
   -2.2289   -1.2001    1.5528 C   0  0  0  0  0  0  0  0  0  0  0  0
   -2.1313    0.0580    0.9715 C   0  0  0  0  0  0  0  0  0  0  0  0
   -2.8125    1.1303    1.5418 C   0  0  0  0  0  0  0  0  0  0  0  0
   -3.5932    0.9699    2.6442 N   0  0  0  0  0  0  0  0  0  0  0  0
   -3.6931   -0.2463    3.2096 C   0  0  0  0  0  0  0  0  0  0  0  0
   -3.0251   -1.3742    2.7005 C   0  0  0  0  0  0  0  0  0  0  0  0
   -3.1772   -2.6195    3.3476 C   0  0  0  0  0  0  0  0  0  0  0  0
   -3.9669   -2.7472    4.4887 C   0  0  0  0  0  0  0  0  0  0  0  0
   -4.6184   -1.6318    4.9985 C   0  0  0  0  0  0  0  0  0  0  0  0
   -4.4772   -0.4011    4.3466 C   0  0  0  0  0  0  0  0  0  0  0  0
   -5.4140   -1.6119    6.1111 O   0  0  0  0  0  0  0  0  0  0  0  0
   -5.5479   -2.8360    6.8245 C   0  0  0  0  0  0  0  0  0  0  0  0
   -2.6907    2.5048    0.9935 C   0  0  0  0  0  0  0  0  0  0  0  0
   -3.3029    3.6078    1.5916 C   0  0  0  0  0  0  0  0  0  0  0  0
   -3.1094    4.8779    1.0502 C   0  0  0  0  0  0  0  0  0  0  0  0
   -2.3200    5.0228   -0.0823 C   0  0  0  0  0  0  0  0  0  0  0  0
   -1.7558    3.8866   -0.6310 C   0  0  0  0  0  0  0  0  0  0  0  0
   -1.9230    2.6444   -0.1264 N   0  0  0  0  0  0  0  0  0  0  0  0
    3.3520   -1.5128    1.6217 N   0  0  0  0  0  0  0  0  0  0  0  0
    2.5598   -0.9002    2.5427 C   0  0  0  0  0  0  0  0  0  0  0  0
    1.8498    0.0660    2.3184 O   0  0  0  0  0  0  0  0  0  0  0  0
    2.6557   -1.5673    3.7158 O   0  0  0  0  0  0  0  0  0  0  0  0
    1.8221   -1.1907    4.8462 C   0  0  0  0  0  0  0  0  0  0  0  0
    0.3304   -1.2965    4.5019 C   0  0  0  0  0  0  0  0  0  0  0  0
    2.1437   -2.2213    5.9399 C   0  0  0  0  0  0  0  0  0  0  0  0
    2.1945    0.2031    5.3633 C   0  0  0  0  0  0  0  0  0  0  0  0
    5.2204   -0.3536   -2.5236 H   0  0  0  0  0  0  0  0  0  0  0  0
    3.4838   -0.1262   -2.2836 H   0  0  0  0  0  0  0  0  0  0  0  0
    4.1552   -1.7586   -2.4535 H   0  0  0  0  0  0  0  0  0  0  0  0
    6.6555   -1.3283   -0.6368 H   0  0  0  0  0  0  0  0  0  0  0  0
    5.6172   -2.7472   -0.5952 H   0  0  0  0  0  0  0  0  0  0  0  0
    5.9214   -1.8236    0.8866 H   0  0  0  0  0  0  0  0  0  0  0  0
    5.7585    0.9879   -0.5136 H   0  0  0  0  0  0  0  0  0  0  0  0
    5.0893    0.6011    1.0740 H   0  0  0  0  0  0  0  0  0  0  0  0
    4.0479    1.2842   -0.1847 H   0  0  0  0  0  0  0  0  0  0  0  0
    2.4788   -0.5065    0.0105 H   0  0  0  0  0  0  0  0  0  0  0  0
    0.3141   -1.1022   -1.3346 H   0  0  0  0  0  0  0  0  0  0  0  0
    0.5204   -1.0283    0.4337 H   0  0  0  0  0  0  0  0  0  0  0  0
   -1.8455   -1.9417   -0.9071 H   0  0  0  0  0  0  0  0  0  0  0  0
   -1.5266   -4.1944   -1.3161 H   0  0  0  0  0  0  0  0  0  0  0  0
   -1.0611   -4.4524    0.3547 H   0  0  0  0  0  0  0  0  0  0  0  0
    1.0776   -4.8181   -0.3261 H   0  0  0  0  0  0  0  0  0  0  0  0
    2.7984   -4.7649   -2.0097 H   0  0  0  0  0  0  0  0  0  0  0  0
    1.5148   -6.8742   -5.4135 H   0  0  0  0  0  0  0  0  0  0  0  0
    1.2007   -7.2055   -3.6600 H   0  0  0  0  0  0  0  0  0  0  0  0
    3.9486   -6.6240   -4.9911 H   0  0  0  0  0  0  0  0  0  0  0  0
    3.3795   -8.1117   -2.5893 H   0  0  0  0  0  0  0  0  0  0  0  0
    5.4343   -5.8387   -2.5050 H   0  0  0  0  0  0  0  0  0  0  0  0
    5.2656   -7.2887   -1.3543 H   0  0  0  0  0  0  0  0  0  0  0  0
    0.5993   -3.9345   -4.7696 H   0  0  0  0  0  0  0  0  0  0  0  0
   -1.5086    0.2453    0.1062 H   0  0  0  0  0  0  0  0  0  0  0  0
   -2.6738   -3.5021    2.9584 H   0  0  0  0  0  0  0  0  0  0  0  0
   -4.0475   -3.7260    4.9482 H   0  0  0  0  0  0  0  0  0  0  0  0
   -4.9930    0.4703    4.7436 H   0  0  0  0  0  0  0  0  0  0  0  0
   -6.2009   -2.6551    7.6831 H   0  0  0  0  0  0  0  0  0  0  0  0
   -4.5799   -3.1772    7.2072 H   0  0  0  0  0  0  0  0  0  0  0  0
   -6.0208   -3.6043    6.2038 H   0  0  0  0  0  0  0  0  0  0  0  0
   -3.9158    3.4843    2.4800 H   0  0  0  0  0  0  0  0  0  0  0  0
   -3.5698    5.7449    1.5152 H   0  0  0  0  0  0  0  0  0  0  0  0
   -2.1485    5.9967   -0.5261 H   0  0  0  0  0  0  0  0  0  0  0  0
   -1.1348    3.9444   -1.5206 H   0  0  0  0  0  0  0  0  0  0  0  0
    3.7827   -2.3698    1.9422 H   0  0  0  0  0  0  0  0  0  0  0  0
    0.1100   -2.2540    4.0176 H   0  0  0  0  0  0  0  0  0  0  0  0
    0.0154   -0.5128    3.8072 H   0  0  0  0  0  0  0  0  0  0  0  0
   -0.2961   -1.2055    5.3954 H   0  0  0  0  0  0  0  0  0  0  0  0
    1.9115   -3.2359    5.5963 H   0  0  0  0  0  0  0  0  0  0  0  0
    1.5799   -2.0295    6.8592 H   0  0  0  0  0  0  0  0  0  0  0  0
    3.2122   -2.2121    6.1851 H   0  0  0  0  0  0  0  0  0  0  0  0
    1.9795    0.9799    4.6240 H   0  0  0  0  0  0  0  0  0  0  0  0
    3.2680    0.2648    5.5790 H   0  0  0  0  0  0  0  0  0  0  0  0
    1.6414    0.4552    6.2752 H   0  0  0  0  0  0  0  0  0  0  0  0
  1  2  1  0  0  0  0
  1 51  1  0  0  0  0
  1 52  1  0  0  0  0
  1 53  1  0  0  0  0
  2  3  1  0  0  0  0
  2  4  1  0  0  0  0
  2  5  1  0  0  0  0
  3 54  1  0  0  0  0
  3 55  1  0  0  0  0
  3 56  1  0  0  0  0
  4 57  1  0  0  0  0
  4 58  1  0  0  0  0
  4 59  1  0  0  0  0
  5  6  1  0  0  0  0
  5 43  1  0  0  0  0
  5 60  1  6  0  0  0
  6  7  2  0  0  0  0
  6  8  1  0  0  0  0
  8  9  1  0  0  0  0
  8 12  1  0  0  0  0
  9 10  1  0  0  0  0
  9 61  1  0  0  0  0
  9 62  1  0  0  0  0
 10 11  1  0  0  0  0
 10 24  1  0  0  0  0
 10 63  1  6  0  0  0
 11 12  1  0  0  0  0
 11 64  1  0  0  0  0
 11 65  1  0  0  0  0
 12 13  1  0  0  0  0
 12 66  1  1  0  0  0
 13 14  2  0  0  0  0
 13 15  1  0  0  0  0
 15 16  1  0  0  0  0
 15 67  1  0  0  0  0
 16 17  1  0  0  0  0
 16 18  1  0  0  0  0
 16 21  1  0  0  0  0
 17 18  1  0  0  0  0
 17 68  1  0  0  0  0
 17 69  1  0  0  0  0
 18 19  1  0  0  0  0
 18 70  1  6  0  0  0
 19 20  2  0  0  0  0
 19 71  1  0  0  0  0
 20 72  1  0  0  0  0
 20 73  1  0  0  0  0
 21 22  2  0  0  0  0
 21 23  1  0  0  0  0
 23 74  1  0  0  0  0
 24 25  1  0  0  0  0
 25 26  2  0  0  0  0
 25 30  1  0  0  0  0
 26 27  1  0  0  0  0
 26 75  1  0  0  0  0
 27 28  2  0  0  0  0
 27 37  1  0  0  0  0
 28 29  1  0  0  0  0
 29 30  2  0  0  0  0
 29 34  1  0  0  0  0
 30 31  1  0  0  0  0
 31 32  2  0  0  0  0
 31 76  1  0  0  0  0
 32 33  1  0  0  0  0
 32 77  1  0  0  0  0
 33 34  2  0  0  0  0
 33 35  1  0  0  0  0
 34 78  1  0  0  0  0
 35 36  1  0  0  0  0
 36 79  1  0  0  0  0
 36 80  1  0  0  0  0
 36 81  1  0  0  0  0
 37 38  2  0  0  0  0
 37 42  1  0  0  0  0
 38 39  1  0  0  0  0
 38 82  1  0  0  0  0
 39 40  2  0  0  0  0
 39 83  1  0  0  0  0
 40 41  1  0  0  0  0
 40 84  1  0  0  0  0
 41 42  2  0  0  0  0
 41 85  1  0  0  0  0
 43 44  1  0  0  0  0
 43 86  1  0  0  0  0
 44 45  2  0  0  0  0
 44 46  1  0  0  0  0
 46 47  1  0  0  0  0
 47 48  1  0  0  0  0
 47 49  1  0  0  0  0
 47 50  1  0  0  0  0
 48 87  1  0  0  0  0
 48 88  1  0  0  0  0
 48 89  1  0  0  0  0
 49 90  1  0  0  0  0
 49 91  1  0  0  0  0
 49 92  1  0  0  0  0
 50 93  1  0  0  0  0
 50 94  1  0  0  0  0
 50 95  1  0  0  0  0
M  END
