
 OpenBabel10072619423D

 56 59  0  0  1  0  0  0  0  0999 V2000
    0.5673   -0.6202   -0.8953 C   0  0  0  0  0  0  0  0  0  0  0  0
    1.8876    0.0424   -1.2722 C   0  0  0  0  0  0  0  0  0  0  0  0
    1.8362    1.5349   -0.9590 C   0  0  0  0  0  0  0  0  0  0  0  0
    2.9052   -0.5677   -0.4716 O   0  0  0  0  0  0  0  0  0  0  0  0
    4.1633   -0.6949   -0.9895 C   0  0  0  0  0  0  0  0  0  0  0  0
    5.0441   -1.4308   -0.1920 C   0  0  0  0  0  0  0  0  0  0  0  0
    6.3769   -1.6116   -0.5776 C   0  0  0  0  0  0  0  0  0  0  0  0
    6.8544   -1.0583   -1.7762 C   0  0  0  0  0  0  0  0  0  0  0  0
    5.9493   -0.3588   -2.5888 C   0  0  0  0  0  0  0  0  0  0  0  0
    4.6202   -0.1708   -2.1953 C   0  0  0  0  0  0  0  0  0  0  0  0
    8.3124   -1.1655   -2.2204 C   0  0  3  0  0  0  0  0  0  0  0  0
    8.8360   -2.5832   -2.2909 C   0  0  0  0  0  0  0  0  0  0  0  0
    8.5806   -3.4098   -3.3324 C   0  0  0  0  0  0  0  0  0  0  0  0
    9.1925   -4.7614   -3.2115 C   0  0  0  0  0  0  0  0  0  0  0  0
    8.5734   -5.7660   -2.4510 C   0  0  0  0  0  0  0  0  0  0  0  0
    9.1698   -7.0232   -2.3255 C   0  0  0  0  0  0  0  0  0  0  0  0
   10.3773   -7.2802   -2.9732 C   0  0  0  0  0  0  0  0  0  0  0  0
   10.9874   -6.3008   -3.7555 C   0  0  0  0  0  0  0  0  0  0  0  0
   10.3929   -5.0442   -3.8757 C   0  0  0  0  0  0  0  0  0  0  0  0
   11.1245   -8.8236   -2.8051 Cl  0  0  0  0  0  0  0  0  0  0  0  0
    7.9083   -3.1198   -4.3622 O   0  5  0  0  0  0  0  0  0  0  0  0
    9.7253   -2.7636   -1.1081 C   0  0  0  0  0  0  0  0  0  0  0  0
   10.1813   -3.7553   -0.5885 O   0  0  0  0  0  0  0  0  0  0  0  0
    9.9718   -1.3623   -0.5489 C   0  0  0  0  0  0  0  0  0  0  0  0
   10.7123   -1.0886    0.3779 O   0  0  0  0  0  0  0  0  0  0  0  0
    9.1823   -0.4906   -1.2553 N   0  0  0  0  0  0  0  0  0  0  0  0
    9.2091    0.9487   -1.0994 C   0  0  0  0  0  0  0  0  0  0  0  0
    8.6024    1.3775    0.2165 C   0  0  0  0  0  0  0  0  0  0  0  0
    9.3617    1.3347    1.3852 C   0  0  0  0  0  0  0  0  0  0  0  0
    8.7885    1.5677    2.5743 N   0  3  0  0  0  0  0  0  0  0  0  0
    7.4836    1.8570    2.6984 C   0  0  0  0  0  0  0  0  0  0  0  0
    6.6808    1.9366    1.5714 C   0  0  0  0  0  0  0  0  0  0  0  0
    7.2487    1.7075    0.3229 C   0  0  0  0  0  0  0  0  0  0  0  0
   -0.2732   -0.1689   -1.4309 H   0  0  0  0  0  0  0  0  0  0  0  0
    0.3832   -0.5423    0.1804 H   0  0  0  0  0  0  0  0  0  0  0  0
    0.5943   -1.6894   -1.1322 H   0  0  0  0  0  0  0  0  0  0  0  0
    2.0369   -0.1374   -2.3412 H   0  0  0  0  0  0  0  0  0  0  0  0
    1.7088    1.7009    0.1167 H   0  0  0  0  0  0  0  0  0  0  0  0
    1.0154    2.0309   -1.4851 H   0  0  0  0  0  0  0  0  0  0  0  0
    2.7703    2.0312   -1.2398 H   0  0  0  0  0  0  0  0  0  0  0  0
    4.6895   -1.8860    0.7294 H   0  0  0  0  0  0  0  0  0  0  0  0
    7.0320   -2.2055    0.0548 H   0  0  0  0  0  0  0  0  0  0  0  0
    6.2705    0.0252   -3.5556 H   0  0  0  0  0  0  0  0  0  0  0  0
    3.9746    0.3830   -2.8678 H   0  0  0  0  0  0  0  0  0  0  0  0
    8.4682   -0.6521   -3.1801 H   0  0  0  0  0  0  0  0  0  0  0  0
    7.6273   -5.5572   -1.9588 H   0  0  0  0  0  0  0  0  0  0  0  0
    8.6902   -7.7879   -1.7235 H   0  0  0  0  0  0  0  0  0  0  0  0
   11.9171   -6.5042   -4.2752 H   0  0  0  0  0  0  0  0  0  0  0  0
   10.8496   -4.2754   -4.4918 H   0  0  0  0  0  0  0  0  0  0  0  0
    8.6976    1.4245   -1.9449 H   0  0  0  0  0  0  0  0  0  0  0  0
   10.2568    1.2753   -1.1363 H   0  0  0  0  0  0  0  0  0  0  0  0
   10.4161    1.0758    1.4052 H   0  0  0  0  0  0  0  0  0  0  0  0
    9.3645    1.4819    3.4116 H   0  0  0  0  0  0  0  0  0  0  0  0
    7.1114    2.0105    3.7036 H   0  0  0  0  0  0  0  0  0  0  0  0
    5.6144    2.1365    1.6548 H   0  0  0  0  0  0  0  0  0  0  0  0
    6.6174    1.7370   -0.5646 H   0  0  0  0  0  0  0  0  0  0  0  0
  1  2  1  0  0  0  0
  1 34  1  0  0  0  0
  1 35  1  0  0  0  0
  1 36  1  0  0  0  0
  2  3  1  0  0  0  0
  2  4  1  0  0  0  0
  2 37  1  0  0  0  0
  3 38  1  0  0  0  0
  3 39  1  0  0  0  0
  3 40  1  0  0  0  0
  4  5  1  0  0  0  0
  5  6  2  0  0  0  0
  5 10  1  0  0  0  0
  6  7  1  0  0  0  0
  6 41  1  0  0  0  0
  7  8  2  0  0  0  0
  7 42  1  0  0  0  0
  8  9  1  0  0  0  0
  8 11  1  0  0  0  0
  9 10  2  0  0  0  0
  9 43  1  0  0  0  0
 10 44  1  0  0  0  0
 11 12  1  0  0  0  0
 11 26  1  0  0  0  0
 11 45  1  0  0  0  0
 12 13  2  0  0  0  0
 12 22  1  0  0  0  0
 13 14  1  0  0  0  0
 13 21  1  0  0  0  0
 14 15  2  0  0  0  0
 14 19  1  0  0  0  0
 15 16  1  0  0  0  0
 15 46  1  0  0  0  0
 16 17  2  0  0  0  0
 16 47  1  0  0  0  0
 17 18  1  0  0  0  0
 17 20  1  0  0  0  0
 18 19  2  0  0  0  0
 18 48  1  0  0  0  0
 19 49  1  0  0  0  0
 22 23  2  0  0  0  0
 22 24  1  0  0  0  0
 24 25  2  0  0  0  0
 24 26  1  0  0  0  0
 26 27  1  0  0  0  0
 27 28  1  0  0  0  0
 27 50  1  0  0  0  0
 27 51  1  0  0  0  0
 28 29  2  0  0  0  0
 28 33  1  0  0  0  0
 29 30  1  0  0  0  0
 29 52  1  0  0  0  0
 30 31  2  0  0  0  0
 30 53  1  0  0  0  0
 31 32  1  0  0  0  0
 31 54  1  0  0  0  0
 32 33  2  0  0  0  0
 32 55  1  0  0  0  0
 33 56  1  0  0  0  0
M  CHG  2  21  -1  30   1
M  END
