
 OpenBabel10072620213D

 31 31  0  0  0  0  0  0  0  0999 V2000
    1.6169   -0.6016   -1.8219 C   0  0  0  0  0  0  0  0  0  0  0  0
    2.9356   -0.3958   -1.0929 C   0  0  0  0  0  0  0  0  0  0  0  0
    3.4907   -1.7163   -0.5611 C   0  0  0  0  0  0  0  0  0  0  0  0
    4.8019   -1.5101    0.1898 C   0  0  0  0  0  0  0  0  0  0  0  0
    5.2879   -2.7571    0.7458 N   0  0  0  0  0  0  0  0  0  0  0  0
    6.5734   -2.8346    1.2257 C   0  0  0  0  0  0  0  0  0  0  0  0
    7.4084   -1.9420    1.1368 O   0  0  0  0  0  0  0  0  0  0  0  0
    6.8124   -4.0427    1.8483 N   0  0  0  0  0  0  0  0  0  0  0  0
    8.1402   -4.2901    2.2496 N   0  0  0  0  0  0  0  0  0  0  0  0
    8.6536   -5.5639    2.0881 C   0  0  0  0  0  0  0  0  0  0  0  0
    7.9336   -6.5142    1.7761 O   0  0  0  0  0  0  0  0  0  0  0  0
   10.0800   -5.6640    2.3035 C   0  0  0  0  0  0  0  0  0  0  0  0
   10.9294   -6.7541    2.2711 C   0  0  0  0  0  0  0  0  0  0  0  0
   12.2277   -6.2687    2.5577 C   0  0  0  0  0  0  0  0  0  0  0  0
   12.0967   -4.9131    2.7423 C   0  0  0  0  0  0  0  0  0  0  0  0
   10.8015   -4.5338    2.5932 O   0  0  0  0  0  0  0  0  0  0  0  0
    1.2303    0.3556   -2.1857 H   0  0  0  0  0  0  0  0  0  0  0  0
    0.8654   -1.0399   -1.1570 H   0  0  0  0  0  0  0  0  0  0  0  0
    1.7451   -1.2667   -2.6820 H   0  0  0  0  0  0  0  0  0  0  0  0
    2.7807    0.3036   -0.2630 H   0  0  0  0  0  0  0  0  0  0  0  0
    3.6579    0.0659   -1.7765 H   0  0  0  0  0  0  0  0  0  0  0  0
    3.6498   -2.4160   -1.3913 H   0  0  0  0  0  0  0  0  0  0  0  0
    2.7543   -2.1833    0.1050 H   0  0  0  0  0  0  0  0  0  0  0  0
    4.6678   -0.8127    1.0244 H   0  0  0  0  0  0  0  0  0  0  0  0
    5.5676   -1.0929   -0.4743 H   0  0  0  0  0  0  0  0  0  0  0  0
    4.6234   -3.3060    1.2730 H   0  0  0  0  0  0  0  0  0  0  0  0
    6.3389   -4.8585    1.4639 H   0  0  0  0  0  0  0  0  0  0  0  0
    8.7669   -3.4853    2.2924 H   0  0  0  0  0  0  0  0  0  0  0  0
   10.6335   -7.7744    2.0655 H   0  0  0  0  0  0  0  0  0  0  0  0
   13.1460   -6.8357    2.6204 H   0  0  0  0  0  0  0  0  0  0  0  0
   12.7924   -4.1183    2.9745 H   0  0  0  0  0  0  0  0  0  0  0  0
  1  2  1  0  0  0  0
  1 17  1  0  0  0  0
  1 18  1  0  0  0  0
  1 19  1  0  0  0  0
  2  3  1  0  0  0  0
  2 20  1  0  0  0  0
  2 21  1  0  0  0  0
  3  4  1  0  0  0  0
  3 22  1  0  0  0  0
  3 23  1  0  0  0  0
  4  5  1  0  0  0  0
  4 24  1  0  0  0  0
  4 25  1  0  0  0  0
  5  6  1  0  0  0  0
  5 26  1  0  0  0  0
  6  7  2  0  0  0  0
  6  8  1  0  0  0  0
  8  9  1  0  0  0  0
  8 27  1  0  0  0  0
  9 10  1  0  0  0  0
  9 28  1  0  0  0  0
 10 11  2  0  0  0  0
 10 12  1  0  0  0  0
 12 13  2  0  0  0  0
 12 16  1  0  0  0  0
 13 14  1  0  0  0  0
 13 29  1  0  0  0  0
 14 15  2  0  0  0  0
 14 30  1  0  0  0  0
 15 16  1  0  0  0  0
 15 31  1  0  0  0  0
M  END
