
 OpenBabel10072619513D

 50 53  0  0  0  0  0  0  0  0999 V2000
    0.9526   -1.1538   -3.6180 C   0  0  0  0  0  0  0  0  0  0  0  0
   -0.1403   -0.7574   -2.6707 C   0  0  0  0  0  0  0  0  0  0  0  0
    0.1181   -0.5592   -1.3103 C   0  0  0  0  0  0  0  0  0  0  0  0
   -0.9178   -0.2304   -0.4331 C   0  0  0  0  0  0  0  0  0  0  0  0
   -2.2301   -0.1013   -0.9034 C   0  0  0  0  0  0  0  0  0  0  0  0
   -2.4827   -0.2697   -2.2716 C   0  0  0  0  0  0  0  0  0  0  0  0
   -1.4461   -0.5962   -3.1463 C   0  0  0  0  0  0  0  0  0  0  0  0
   -3.3672    0.1652    0.0453 C   0  0  0  0  0  0  0  0  0  0  0  0
   -3.9315    1.4820   -0.1452 N   0  0  0  0  0  0  0  0  0  0  0  0
   -5.2761    1.6953    0.0338 C   0  0  0  0  0  0  0  0  0  0  0  0
   -6.0469    0.7911    0.3308 O   0  0  0  0  0  0  0  0  0  0  0  0
   -5.6071    3.0235   -0.1267 N   0  0  0  0  0  0  0  0  0  0  0  0
   -6.9137    3.5523   -0.0792 C   0  0  0  0  0  0  0  0  0  0  0  0
   -8.0564    2.7711   -0.2908 C   0  0  0  0  0  0  0  0  0  0  0  0
   -9.3579    3.3034   -0.2066 C   0  0  0  0  0  0  0  0  0  0  0  0
   -9.4849    4.6590    0.1409 C   0  0  0  0  0  0  0  0  0  0  0  0
   -8.3395    5.4564    0.3074 C   0  0  0  0  0  0  0  0  0  0  0  0
   -7.0625    4.9112    0.1787 C   0  0  0  0  0  0  0  0  0  0  0  0
  -11.0532    5.4301    0.5035 S   0  0  0  0  0  0  0  0  0  0  0  0
  -11.7480    5.2810   -1.1184 C   0  0  0  0  0  0  0  0  0  0  0  0
  -12.1346    6.4528   -1.7880 C   0  0  0  0  0  0  0  0  0  0  0  0
  -12.6686    6.3934   -3.0763 C   0  0  0  0  0  0  0  0  0  0  0  0
  -12.8143    5.1634   -3.7096 C   0  0  0  0  0  0  0  0  0  0  0  0
  -12.4380    3.9941   -3.0479 C   0  0  0  0  0  0  0  0  0  0  0  0
  -11.9052    4.0458   -1.7473 C   0  0  0  0  0  0  0  0  0  0  0  0
  -11.6820    2.7485   -1.0653 C   0  0  0  0  0  0  0  0  0  0  0  0
  -12.5898    1.9208   -1.2036 O   0  0  0  0  0  0  0  0  0  0  0  0
  -10.4786    2.4296   -0.4139 N   0  0  0  0  0  0  0  0  0  0  0  0
  -10.3170    1.0188   -0.0560 C   0  0  0  0  0  0  0  0  0  0  0  0
    1.9076   -1.2870   -3.0995 H   0  0  0  0  0  0  0  0  0  0  0  0
    1.0861   -0.3839   -4.3842 H   0  0  0  0  0  0  0  0  0  0  0  0
    0.7014   -2.1035   -4.1019 H   0  0  0  0  0  0  0  0  0  0  0  0
    1.1250   -0.6778   -0.9179 H   0  0  0  0  0  0  0  0  0  0  0  0
   -0.6966   -0.1014    0.6243 H   0  0  0  0  0  0  0  0  0  0  0  0
   -3.4964   -0.1732   -2.6568 H   0  0  0  0  0  0  0  0  0  0  0  0
   -1.6667   -0.7455   -4.2005 H   0  0  0  0  0  0  0  0  0  0  0  0
   -3.0297    0.1139    1.0869 H   0  0  0  0  0  0  0  0  0  0  0  0
   -4.1315   -0.6106   -0.0809 H   0  0  0  0  0  0  0  0  0  0  0  0
   -3.3786    2.1728   -0.6276 H   0  0  0  0  0  0  0  0  0  0  0  0
   -4.8445    3.6730   -0.0051 H   0  0  0  0  0  0  0  0  0  0  0  0
   -7.9307    1.7293   -0.5679 H   0  0  0  0  0  0  0  0  0  0  0  0
   -8.4356    6.5093    0.5647 H   0  0  0  0  0  0  0  0  0  0  0  0
   -6.1988    5.5534    0.3275 H   0  0  0  0  0  0  0  0  0  0  0  0
  -12.0256    7.4221   -1.3056 H   0  0  0  0  0  0  0  0  0  0  0  0
  -12.9764    7.3062   -3.5810 H   0  0  0  0  0  0  0  0  0  0  0  0
  -13.2379    5.1106   -4.7093 H   0  0  0  0  0  0  0  0  0  0  0  0
  -12.5807    3.0322   -3.5376 H   0  0  0  0  0  0  0  0  0  0  0  0
  -11.2803    0.5719    0.2115 H   0  0  0  0  0  0  0  0  0  0  0  0
   -9.6568    0.9024    0.8092 H   0  0  0  0  0  0  0  0  0  0  0  0
   -9.9177    0.4754   -0.9192 H   0  0  0  0  0  0  0  0  0  0  0  0
  1  2  1  0  0  0  0
  1 30  1  0  0  0  0
  1 31  1  0  0  0  0
  1 32  1  0  0  0  0
  2  3  2  0  0  0  0
  2  7  1  0  0  0  0
  3  4  1  0  0  0  0
  3 33  1  0  0  0  0
  4  5  2  0  0  0  0
  4 34  1  0  0  0  0
  5  6  1  0  0  0  0
  5  8  1  0  0  0  0
  6  7  2  0  0  0  0
  6 35  1  0  0  0  0
  7 36  1  0  0  0  0
  8  9  1  0  0  0  0
  8 37  1  0  0  0  0
  8 38  1  0  0  0  0
  9 10  1  0  0  0  0
  9 39  1  0  0  0  0
 10 11  2  0  0  0  0
 10 12  1  0  0  0  0
 12 13  1  0  0  0  0
 12 40  1  0  0  0  0
 13 14  2  0  0  0  0
 13 18  1  0  0  0  0
 14 15  1  0  0  0  0
 14 41  1  0  0  0  0
 15 16  2  0  0  0  0
 15 28  1  0  0  0  0
 16 17  1  0  0  0  0
 16 19  1  0  0  0  0
 17 18  2  0  0  0  0
 17 42  1  0  0  0  0
 18 43  1  0  0  0  0
 19 20  1  0  0  0  0
 20 21  2  0  0  0  0
 20 25  1  0  0  0  0
 21 22  1  0  0  0  0
 21 44  1  0  0  0  0
 22 23  2  0  0  0  0
 22 45  1  0  0  0  0
 23 24  1  0  0  0  0
 23 46  1  0  0  0  0
 24 25  2  0  0  0  0
 24 47  1  0  0  0  0
 25 26  1  0  0  0  0
 26 27  2  0  0  0  0
 26 28  1  0  0  0  0
 28 29  1  0  0  0  0
 29 48  1  0  0  0  0
 29 49  1  0  0  0  0
 29 50  1  0  0  0  0
M  END
