
 OpenBabel10072619563D

 34 36  0  0  0  0  0  0  0  0999 V2000
    1.2234   -1.0015    0.5394 C   0  0  0  0  0  0  0  0  0  0  0  0
    2.5546   -0.4043    0.2735 C   0  0  0  0  0  0  0  0  0  0  0  0
    2.9812    0.8889   -0.0172 C   0  0  0  0  0  0  0  0  0  0  0  0
    4.3687    0.7807   -0.1293 N   0  0  0  0  0  0  0  0  0  0  0  0
    5.3318    1.7614   -0.4025 C   0  0  0  0  0  0  0  0  0  0  0  0
    6.6301    1.4163   -0.4569 C   0  0  0  0  0  0  0  0  0  0  0  0
    7.0004    0.0289   -0.2330 C   0  0  0  0  0  0  0  0  0  0  0  0
    6.0723   -0.9115    0.0269 C   0  0  0  0  0  0  0  0  0  0  0  0
    4.6976   -0.5499    0.0879 C   0  0  0  0  0  0  0  0  0  0  0  0
    3.6309   -1.2707    0.3264 N   0  0  0  0  0  0  0  0  0  0  0  0
    2.3021    2.1038   -0.1772 N   0  0  0  0  0  0  0  0  0  0  0  0
    0.8942    2.3165   -0.1303 C   0  0  0  0  0  0  0  0  0  0  0  0
    0.1162    1.4040    0.0479 O   0  0  0  0  0  0  0  0  0  0  0  0
    0.6322    3.6476   -0.3238 N   0  0  0  0  0  0  0  0  0  0  0  0
   -0.6430    4.2583   -0.3537 C   0  0  0  0  0  0  0  0  0  0  0  0
   -1.8454    3.5726   -0.1642 C   0  0  0  0  0  0  0  0  0  0  0  0
   -3.0658    4.2547   -0.2140 C   0  0  0  0  0  0  0  0  0  0  0  0
   -3.0963    5.6254   -0.4545 C   0  0  0  0  0  0  0  0  0  0  0  0
   -1.9051    6.3191   -0.6439 C   0  0  0  0  0  0  0  0  0  0  0  0
   -0.6846    5.6400   -0.5917 C   0  0  0  0  0  0  0  0  0  0  0  0
    0.7424   -0.5241    1.3976 H   0  0  0  0  0  0  0  0  0  0  0  0
    1.3218   -2.0655    0.7833 H   0  0  0  0  0  0  0  0  0  0  0  0
    0.5811   -0.9389   -0.3431 H   0  0  0  0  0  0  0  0  0  0  0  0
    5.0103    2.7796   -0.5641 H   0  0  0  0  0  0  0  0  0  0  0  0
    7.4146    2.1382   -0.6631 H   0  0  0  0  0  0  0  0  0  0  0  0
    8.0540   -0.2326   -0.2817 H   0  0  0  0  0  0  0  0  0  0  0  0
    6.3450   -1.9480    0.1940 H   0  0  0  0  0  0  0  0  0  0  0  0
    2.8797    2.9062   -0.3557 H   0  0  0  0  0  0  0  0  0  0  0  0
    1.4004    4.2822   -0.4697 H   0  0  0  0  0  0  0  0  0  0  0  0
   -1.8840    2.5044    0.0255 H   0  0  0  0  0  0  0  0  0  0  0  0
   -3.9958    3.7097   -0.0651 H   0  0  0  0  0  0  0  0  0  0  0  0
   -4.0480    6.1502   -0.4944 H   0  0  0  0  0  0  0  0  0  0  0  0
   -1.9279    7.3899   -0.8332 H   0  0  0  0  0  0  0  0  0  0  0  0
    0.2247    6.2159   -0.7435 H   0  0  0  0  0  0  0  0  0  0  0  0
  1  2  1  0  0  0  0
  1 21  1  0  0  0  0
  1 22  1  0  0  0  0
  1 23  1  0  0  0  0
  2  3  2  0  0  0  0
  2 10  1  0  0  0  0
  3  4  1  0  0  0  0
  3 11  1  0  0  0  0
  4  5  1  0  0  0  0
  4  9  1  0  0  0  0
  5  6  2  0  0  0  0
  5 24  1  0  0  0  0
  6  7  1  0  0  0  0
  6 25  1  0  0  0  0
  7  8  2  0  0  0  0
  7 26  1  0  0  0  0
  8  9  1  0  0  0  0
  8 27  1  0  0  0  0
  9 10  2  0  0  0  0
 11 12  1  0  0  0  0
 11 28  1  0  0  0  0
 12 13  2  0  0  0  0
 12 14  1  0  0  0  0
 14 15  1  0  0  0  0
 14 29  1  0  0  0  0
 15 16  2  0  0  0  0
 15 20  1  0  0  0  0
 16 17  1  0  0  0  0
 16 30  1  0  0  0  0
 17 18  2  0  0  0  0
 17 31  1  0  0  0  0
 18 19  1  0  0  0  0
 18 32  1  0  0  0  0
 19 20  2  0  0  0  0
 19 33  1  0  0  0  0
 20 34  1  0  0  0  0
M  END
