
 OpenBabel10072616323D

 53 55  0  0  0  0  0  0  0  0999 V2000
    1.3229   -0.8913    0.0365 C   0  0  0  0  0  0  0  0  0  0  0  0
    2.7202   -0.2803    0.1572 C   0  0  0  0  0  0  0  0  0  0  0  0
    3.5150   -0.4728   -1.1355 C   0  0  0  0  0  0  0  0  0  0  0  0
    2.6761    1.1352    0.7319 C   0  0  0  0  0  0  0  0  0  0  0  0
    2.6072    2.3468    0.0011 C   0  0  0  0  0  0  0  0  0  0  0  0
    2.6436    3.6033    0.6636 C   0  0  0  0  0  0  0  0  0  0  0  0
    2.7185    3.6147    2.0698 C   0  0  0  0  0  0  0  0  0  0  0  0
    2.7715    2.4346    2.7987 C   0  0  0  0  0  0  0  0  0  0  0  0
    2.7431    1.2131    2.1384 C   0  0  0  0  0  0  0  0  0  0  0  0
    2.5014    4.9397   -0.0639 C   0  0  0  0  0  0  0  0  0  0  0  0
    1.1168    5.5494    0.1826 C   0  0  0  0  0  0  0  0  0  0  0  0
    3.6093    5.9300    0.3152 C   0  0  0  0  0  0  0  0  0  0  0  0
    2.5514    2.3115   -1.4112 N   0  0  0  0  0  0  0  0  0  0  0  0
    1.3349    2.1046   -2.0405 C   0  0  0  0  0  0  0  0  0  0  0  0
    0.2522    1.9470   -1.4956 O   0  0  0  0  0  0  0  0  0  0  0  0
    1.5089    2.1200   -3.4119 N   0  0  0  0  0  0  0  0  0  0  0  0
    0.3864    1.8092   -4.2878 C   0  0  0  0  0  0  0  0  0  0  0  0
   -0.7548    2.8515   -4.2088 C   0  0  0  0  0  0  0  0  0  0  0  0
   -1.3297    2.7869   -5.5899 C   0  0  0  0  0  0  0  0  0  0  0  0
   -2.5392    3.2992   -6.0295 C   0  0  0  0  0  0  0  0  0  0  0  0
   -2.8686    3.1560   -7.3790 C   0  0  0  0  0  0  0  0  0  0  0  0
   -1.9876    2.5178   -8.2654 C   0  0  0  0  0  0  0  0  0  0  0  0
   -0.7649    2.0147   -7.8151 C   0  0  0  0  0  0  0  0  0  0  0  0
   -0.4510    2.1544   -6.4733 C   0  0  0  0  0  0  0  0  0  0  0  0
    0.8063    1.7451   -5.7747 C   0  0  0  0  0  0  0  0  0  0  0  0
    1.3883   -1.9486   -0.2418 H   0  0  0  0  0  0  0  0  0  0  0  0
    0.7215   -0.3906   -0.7245 H   0  0  0  0  0  0  0  0  0  0  0  0
    0.7772   -0.8348    0.9844 H   0  0  0  0  0  0  0  0  0  0  0  0
    3.2585   -0.8949    0.8944 H   0  0  0  0  0  0  0  0  0  0  0  0
    2.9666   -0.1315   -2.0164 H   0  0  0  0  0  0  0  0  0  0  0  0
    3.7173   -1.5383   -1.2951 H   0  0  0  0  0  0  0  0  0  0  0  0
    4.4780    0.0464   -1.0931 H   0  0  0  0  0  0  0  0  0  0  0  0
    2.7060    4.5550    2.6160 H   0  0  0  0  0  0  0  0  0  0  0  0
    2.8229    2.4659    3.8835 H   0  0  0  0  0  0  0  0  0  0  0  0
    2.7844    0.3034    2.7346 H   0  0  0  0  0  0  0  0  0  0  0  0
    2.5906    4.8012   -1.1448 H   0  0  0  0  0  0  0  0  0  0  0  0
    0.9484    5.7758    1.2412 H   0  0  0  0  0  0  0  0  0  0  0  0
    0.3250    4.8648   -0.1424 H   0  0  0  0  0  0  0  0  0  0  0  0
    1.0020    6.4836   -0.3776 H   0  0  0  0  0  0  0  0  0  0  0  0
    3.5400    6.2543    1.3586 H   0  0  0  0  0  0  0  0  0  0  0  0
    3.5468    6.8292   -0.3075 H   0  0  0  0  0  0  0  0  0  0  0  0
    4.5989    5.4837    0.1663 H   0  0  0  0  0  0  0  0  0  0  0  0
    3.0343    3.0654   -1.8768 H   0  0  0  0  0  0  0  0  0  0  0  0
    2.4088    1.7534   -3.6887 H   0  0  0  0  0  0  0  0  0  0  0  0
   -0.0056    0.8273   -3.9851 H   0  0  0  0  0  0  0  0  0  0  0  0
   -0.3694    3.8567   -4.0058 H   0  0  0  0  0  0  0  0  0  0  0  0
   -1.4925    2.5768   -3.4488 H   0  0  0  0  0  0  0  0  0  0  0  0
   -3.2178    3.8004   -5.3465 H   0  0  0  0  0  0  0  0  0  0  0  0
   -3.8155    3.5431   -7.7478 H   0  0  0  0  0  0  0  0  0  0  0  0
   -2.2595    2.4170   -9.3134 H   0  0  0  0  0  0  0  0  0  0  0  0
   -0.0818    1.5287   -8.5040 H   0  0  0  0  0  0  0  0  0  0  0  0
    1.6113    2.4530   -6.0014 H   0  0  0  0  0  0  0  0  0  0  0  0
    1.1218    0.7345   -6.0519 H   0  0  0  0  0  0  0  0  0  0  0  0
  1  2  1  0  0  0  0
  1 26  1  0  0  0  0
  1 27  1  0  0  0  0
  1 28  1  0  0  0  0
  2  3  1  0  0  0  0
  2  4  1  0  0  0  0
  2 29  1  0  0  0  0
  3 30  1  0  0  0  0
  3 31  1  0  0  0  0
  3 32  1  0  0  0  0
  4  5  2  0  0  0  0
  4  9  1  0  0  0  0
  5  6  1  0  0  0  0
  5 13  1  0  0  0  0
  6  7  2  0  0  0  0
  6 10  1  0  0  0  0
  7  8  1  0  0  0  0
  7 33  1  0  0  0  0
  8  9  2  0  0  0  0
  8 34  1  0  0  0  0
  9 35  1  0  0  0  0
 10 11  1  0  0  0  0
 10 12  1  0  0  0  0
 10 36  1  0  0  0  0
 11 37  1  0  0  0  0
 11 38  1  0  0  0  0
 11 39  1  0  0  0  0
 12 40  1  0  0  0  0
 12 41  1  0  0  0  0
 12 42  1  0  0  0  0
 13 14  1  0  0  0  0
 13 43  1  0  0  0  0
 14 15  2  0  0  0  0
 14 16  1  0  0  0  0
 16 17  1  0  0  0  0
 16 44  1  0  0  0  0
 17 18  1  0  0  0  0
 17 25  1  0  0  0  0
 17 45  1  0  0  0  0
 18 19  1  0  0  0  0
 18 46  1  0  0  0  0
 18 47  1  0  0  0  0
 19 20  2  0  0  0  0
 19 24  1  0  0  0  0
 20 21  1  0  0  0  0
 20 48  1  0  0  0  0
 21 22  2  0  0  0  0
 21 49  1  0  0  0  0
 22 23  1  0  0  0  0
 22 50  1  0  0  0  0
 23 24  2  0  0  0  0
 23 51  1  0  0  0  0
 24 25  1  0  0  0  0
 25 52  1  0  0  0  0
 25 53  1  0  0  0  0
M  END
