
 OpenBabel10072619473D

 48 49  0  0  1  0  0  0  0  0999 V2000
    2.7843   -4.0908   -0.2193 C   0  0  0  0  0  0  0  0  0  0  0  0
    3.0768   -2.6283    0.0507 C   0  0  0  0  0  0  0  0  0  0  0  0
    4.4246   -2.4854    0.4690 O   0  0  0  0  0  0  0  0  0  0  0  0
    4.8364   -1.1055    1.2055 P   0  0  0  0  0  0  0  0  0  0  0  0
    3.9512    0.0527    0.8312 O   0  0  0  0  0  0  0  0  0  0  0  0
    4.9663   -1.4716    2.9974 C   0  0  3  0  0  0  0  0  0  0  0  0
    5.5169   -0.3624    3.8808 C   0  0  0  0  0  0  0  0  0  0  0  0
    5.0261    0.9495    3.8022 C   0  0  0  0  0  0  0  0  0  0  0  0
    5.5302    1.9479    4.6387 C   0  0  0  0  0  0  0  0  0  0  0  0
    6.5161    1.6453    5.5756 C   0  0  0  0  0  0  0  0  0  0  0  0
    7.0097    0.3464    5.6689 C   0  0  0  0  0  0  0  0  0  0  0  0
    6.5089   -0.6528    4.8322 C   0  0  0  0  0  0  0  0  0  0  0  0
    3.6657   -1.8962    3.5251 N   0  0  0  0  0  0  0  0  0  0  0  0
    3.2960   -3.2175    3.4874 C   0  0  0  0  0  0  0  0  0  0  0  0
    4.0380   -4.0843    3.0500 O   0  0  0  0  0  0  0  0  0  0  0  0
    2.0157   -3.3944    3.9622 N   0  0  0  0  0  0  0  0  0  0  0  0
    1.3116   -4.6082    4.0971 C   0  0  0  0  0  0  0  0  0  0  0  0
    1.8730   -5.8673    3.8598 C   0  0  0  0  0  0  0  0  0  0  0  0
    1.1143   -7.0325    4.0361 C   0  0  0  0  0  0  0  0  0  0  0  0
   -0.2165   -6.9440    4.4541 C   0  0  0  0  0  0  0  0  0  0  0  0
   -0.7850   -5.6905    4.6893 C   0  0  0  0  0  0  0  0  0  0  0  0
   -0.0243   -4.5307    4.5107 C   0  0  0  0  0  0  0  0  0  0  0  0
   -1.2071   -8.3357    4.7071 Cl  0  0  0  0  0  0  0  0  0  0  0  0
    1.8856   -8.5510    3.7301 Cl  0  0  0  0  0  0  0  0  0  0  0  0
    6.3721   -0.9215    0.7325 O   0  0  0  0  0  0  0  0  0  0  0  0
    6.5904   -0.5038   -0.6040 C   0  0  0  0  0  0  0  0  0  0  0  0
    8.0785   -0.5647   -0.8792 C   0  0  0  0  0  0  0  0  0  0  0  0
    1.7517   -4.2263   -0.5528 H   0  0  0  0  0  0  0  0  0  0  0  0
    2.9391   -4.6960    0.6787 H   0  0  0  0  0  0  0  0  0  0  0  0
    3.4565   -4.4860   -0.9875 H   0  0  0  0  0  0  0  0  0  0  0  0
    2.3936   -2.2418    0.8136 H   0  0  0  0  0  0  0  0  0  0  0  0
    2.9384   -2.0456   -0.8657 H   0  0  0  0  0  0  0  0  0  0  0  0
    5.6581   -2.3212    3.0515 H   0  0  0  0  0  0  0  0  0  0  0  0
    4.2455    1.2148    3.0912 H   0  0  0  0  0  0  0  0  0  0  0  0
    5.1516    2.9644    4.5574 H   0  0  0  0  0  0  0  0  0  0  0  0
    6.9042    2.4221    6.2293 H   0  0  0  0  0  0  0  0  0  0  0  0
    7.7869    0.1106    6.3920 H   0  0  0  0  0  0  0  0  0  0  0  0
    6.9043   -1.6625    4.9295 H   0  0  0  0  0  0  0  0  0  0  0  0
    3.1934   -1.2679    4.1575 H   0  0  0  0  0  0  0  0  0  0  0  0
    1.5076   -2.5499    4.1823 H   0  0  0  0  0  0  0  0  0  0  0  0
    2.9075   -5.9719    3.5483 H   0  0  0  0  0  0  0  0  0  0  0  0
   -1.8195   -5.6093    5.0166 H   0  0  0  0  0  0  0  0  0  0  0  0
   -0.4952   -3.5687    4.7012 H   0  0  0  0  0  0  0  0  0  0  0  0
    6.2290    0.5228   -0.7243 H   0  0  0  0  0  0  0  0  0  0  0  0
    6.0480   -1.1572   -1.2967 H   0  0  0  0  0  0  0  0  0  0  0  0
    8.6282    0.0644   -0.1716 H   0  0  0  0  0  0  0  0  0  0  0  0
    8.3066   -0.2326   -1.8949 H   0  0  0  0  0  0  0  0  0  0  0  0
    8.4545   -1.5846   -0.7496 H   0  0  0  0  0  0  0  0  0  0  0  0
  1  2  1  0  0  0  0
  1 28  1  0  0  0  0
  1 29  1  0  0  0  0
  1 30  1  0  0  0  0
  2  3  1  0  0  0  0
  2 31  1  0  0  0  0
  2 32  1  0  0  0  0
  3  4  1  0  0  0  0
  4  5  2  0  0  0  0
  4  6  1  0  0  0  0
  4 25  1  0  0  0  0
  6  7  1  0  0  0  0
  6 13  1  0  0  0  0
  6 33  1  0  0  0  0
  7  8  2  0  0  0  0
  7 12  1  0  0  0  0
  8  9  1  0  0  0  0
  8 34  1  0  0  0  0
  9 10  2  0  0  0  0
  9 35  1  0  0  0  0
 10 11  1  0  0  0  0
 10 36  1  0  0  0  0
 11 12  2  0  0  0  0
 11 37  1  0  0  0  0
 12 38  1  0  0  0  0
 13 14  1  0  0  0  0
 13 39  1  0  0  0  0
 14 15  2  0  0  0  0
 14 16  1  0  0  0  0
 16 17  1  0  0  0  0
 16 40  1  0  0  0  0
 17 18  2  0  0  0  0
 17 22  1  0  0  0  0
 18 19  1  0  0  0  0
 18 41  1  0  0  0  0
 19 20  2  0  0  0  0
 19 24  1  0  0  0  0
 20 21  1  0  0  0  0
 20 23  1  0  0  0  0
 21 22  2  0  0  0  0
 21 42  1  0  0  0  0
 22 43  1  0  0  0  0
 25 26  1  0  0  0  0
 26 27  1  0  0  0  0
 26 44  1  0  0  0  0
 26 45  1  0  0  0  0
 27 46  1  0  0  0  0
 27 47  1  0  0  0  0
 27 48  1  0  0  0  0
M  END
