
 OpenBabel10072619563D

 67 70  0  0  1  0  0  0  0  0999 V2000
    4.2047   -0.1998   -0.4200 C   0  0  0  0  0  0  0  0  0  0  0  0
    2.7679   -0.1502    0.0943 C   0  0  3  0  0  0  0  0  0  0  0  0
    2.8041   -0.1645    1.6343 C   0  0  0  0  0  0  0  0  0  0  0  0
    3.0867   -1.1899    2.2474 O   0  0  0  0  0  0  0  0  0  0  0  0
    2.5218    1.0802    2.1931 N   0  0  0  0  0  0  0  0  0  0  0  0
    2.5448    1.4144    3.5203 N   0  0  0  0  0  0  0  0  0  0  0  0
    2.3095    0.4858    4.3953 C   0  0  0  0  0  0  0  0  0  0  0  0
    2.3898    0.7516    5.8464 C   0  0  0  0  0  0  0  0  0  0  0  0
    2.4902   -0.3216    6.7417 C   0  0  0  0  0  0  0  0  0  0  0  0
    2.6032   -0.0967    8.1144 C   0  0  0  0  0  0  0  0  0  0  0  0
    2.5952    1.2143    8.5956 C   0  0  0  0  0  0  0  0  0  0  0  0
    2.4860    2.2836    7.7037 C   0  0  0  0  0  0  0  0  0  0  0  0
    2.3827    2.0624    6.3304 C   0  0  0  0  0  0  0  0  0  0  0  0
    2.5025    4.0557    8.3632 Br  0  0  0  0  0  0  0  0  0  0  0  0
    2.6203   -1.6155    6.2017 O   0  0  0  0  0  0  0  0  0  0  0  0
    1.8994   -2.6769    6.7208 C   0  0  0  0  0  0  0  0  0  0  0  0
    1.1464   -2.6720    7.6824 O   0  0  0  0  0  0  0  0  0  0  0  0
    2.2012   -3.8388    5.8575 C   0  0  0  0  0  0  0  0  0  0  0  0
    1.7389   -5.0612    6.1629 C   0  0  0  0  0  0  0  0  0  0  0  0
    1.9782   -6.2558    5.3375 C   0  0  0  0  0  0  0  0  0  0  0  0
    3.1120   -6.4054    4.5250 C   0  0  0  0  0  0  0  0  0  0  0  0
    3.3051   -7.5680    3.7735 C   0  0  0  0  0  0  0  0  0  0  0  0
    2.3744   -8.6011    3.8343 C   0  0  0  0  0  0  0  0  0  0  0  0
    1.2516   -8.4732    4.6480 C   0  0  0  0  0  0  0  0  0  0  0  0
    1.0568   -7.3096    5.3977 C   0  0  0  0  0  0  0  0  0  0  0  0
    2.1700    1.0157   -0.4732 O   0  0  0  0  0  0  0  0  0  0  0  0
    0.8155    0.9975   -0.6615 C   0  0  0  0  0  0  0  0  0  0  0  0
   -0.0960    0.2280    0.0581 C   0  0  0  0  0  0  0  0  0  0  0  0
   -1.4642    0.3401   -0.2087 C   0  0  0  0  0  0  0  0  0  0  0  0
   -1.9359    1.2198   -1.1850 C   0  0  0  0  0  0  0  0  0  0  0  0
   -1.0221    1.9774   -1.9141 C   0  0  0  0  0  0  0  0  0  0  0  0
    0.3462    1.8751   -1.6404 C   0  0  0  0  0  0  0  0  0  0  0  0
   -3.2950    1.2457   -1.3185 O   0  0  0  0  0  0  0  0  0  0  0  0
   -3.8493    2.2260   -2.1935 C   0  0  0  0  0  0  0  0  0  0  0  0
   -5.3254    2.3370   -1.8965 C   0  0  0  0  0  0  0  0  0  0  0  0
   -5.7608    3.0338   -0.7581 C   0  0  0  0  0  0  0  0  0  0  0  0
   -7.1208    3.1251   -0.4573 C   0  0  0  0  0  0  0  0  0  0  0  0
   -8.0597    2.5167   -1.2874 C   0  0  0  0  0  0  0  0  0  0  0  0
   -7.6394    1.8202   -2.4200 C   0  0  0  0  0  0  0  0  0  0  0  0
   -6.2786    1.7271   -2.7226 C   0  0  0  0  0  0  0  0  0  0  0  0
    4.7360   -1.0791   -0.0412 H   0  0  0  0  0  0  0  0  0  0  0  0
    4.7624    0.6941   -0.1173 H   0  0  0  0  0  0  0  0  0  0  0  0
    4.2191   -0.2281   -1.5153 H   0  0  0  0  0  0  0  0  0  0  0  0
    2.2504   -1.0563   -0.2457 H   0  0  0  0  0  0  0  0  0  0  0  0
    2.4922    1.8779    1.5601 H   0  0  0  0  0  0  0  0  0  0  0  0
    2.0264   -0.5394    4.1120 H   0  0  0  0  0  0  0  0  0  0  0  0
    2.7096   -0.9240    8.8104 H   0  0  0  0  0  0  0  0  0  0  0  0
    2.6889    1.3913    9.6645 H   0  0  0  0  0  0  0  0  0  0  0  0
    2.2979    2.8988    5.6416 H   0  0  0  0  0  0  0  0  0  0  0  0
    2.7864   -3.6396    4.9672 H   0  0  0  0  0  0  0  0  0  0  0  0
    1.1293   -5.2039    7.0541 H   0  0  0  0  0  0  0  0  0  0  0  0
    3.8691   -5.6277    4.4679 H   0  0  0  0  0  0  0  0  0  0  0  0
    4.1870   -7.6672    3.1459 H   0  0  0  0  0  0  0  0  0  0  0  0
    2.5272   -9.5058    3.2518 H   0  0  0  0  0  0  0  0  0  0  0  0
    0.5258   -9.2800    4.7027 H   0  0  0  0  0  0  0  0  0  0  0  0
    0.1715   -7.2334    6.0253 H   0  0  0  0  0  0  0  0  0  0  0  0
    0.2095   -0.4582    0.8409 H   0  0  0  0  0  0  0  0  0  0  0  0
   -2.1731   -0.2613    0.3570 H   0  0  0  0  0  0  0  0  0  0  0  0
   -1.3342    2.6533   -2.7025 H   0  0  0  0  0  0  0  0  0  0  0  0
    1.0523    2.4758   -2.2090 H   0  0  0  0  0  0  0  0  0  0  0  0
   -3.6858    1.9213   -3.2349 H   0  0  0  0  0  0  0  0  0  0  0  0
   -3.3977    3.2138   -2.0364 H   0  0  0  0  0  0  0  0  0  0  0  0
   -5.0365    3.4998   -0.0931 H   0  0  0  0  0  0  0  0  0  0  0  0
   -7.4458    3.6624    0.4299 H   0  0  0  0  0  0  0  0  0  0  0  0
   -9.1177    2.5772   -1.0456 H   0  0  0  0  0  0  0  0  0  0  0  0
   -8.3723    1.3409   -3.0639 H   0  0  0  0  0  0  0  0  0  0  0  0
   -5.9688    1.1679   -3.6022 H   0  0  0  0  0  0  0  0  0  0  0  0
  1  2  1  0  0  0  0
  1 41  1  0  0  0  0
  1 42  1  0  0  0  0
  1 43  1  0  0  0  0
  2  3  1  0  0  0  0
  2 26  1  0  0  0  0
  2 44  1  0  0  0  0
  3  4  2  0  0  0  0
  3  5  1  0  0  0  0
  5  6  1  0  0  0  0
  5 45  1  0  0  0  0
  6  7  2  0  0  0  0
  7  8  1  0  0  0  0
  7 46  1  0  0  0  0
  8  9  2  0  0  0  0
  8 13  1  0  0  0  0
  9 10  1  0  0  0  0
  9 15  1  0  0  0  0
 10 11  2  0  0  0  0
 10 47  1  0  0  0  0
 11 12  1  0  0  0  0
 11 48  1  0  0  0  0
 12 13  2  0  0  0  0
 12 14  1  0  0  0  0
 13 49  1  0  0  0  0
 15 16  1  0  0  0  0
 16 17  2  0  0  0  0
 16 18  1  0  0  0  0
 18 19  2  0  0  0  0
 18 50  1  0  0  0  0
 19 20  1  0  0  0  0
 19 51  1  0  0  0  0
 20 21  2  0  0  0  0
 20 25  1  0  0  0  0
 21 22  1  0  0  0  0
 21 52  1  0  0  0  0
 22 23  2  0  0  0  0
 22 53  1  0  0  0  0
 23 24  1  0  0  0  0
 23 54  1  0  0  0  0
 24 25  2  0  0  0  0
 24 55  1  0  0  0  0
 25 56  1  0  0  0  0
 26 27  1  0  0  0  0
 27 28  2  0  0  0  0
 27 32  1  0  0  0  0
 28 29  1  0  0  0  0
 28 57  1  0  0  0  0
 29 30  2  0  0  0  0
 29 58  1  0  0  0  0
 30 31  1  0  0  0  0
 30 33  1  0  0  0  0
 31 32  2  0  0  0  0
 31 59  1  0  0  0  0
 32 60  1  0  0  0  0
 33 34  1  0  0  0  0
 34 35  1  0  0  0  0
 34 61  1  0  0  0  0
 34 62  1  0  0  0  0
 35 36  2  0  0  0  0
 35 40  1  0  0  0  0
 36 37  1  0  0  0  0
 36 63  1  0  0  0  0
 37 38  2  0  0  0  0
 37 64  1  0  0  0  0
 38 39  1  0  0  0  0
 38 65  1  0  0  0  0
 39 40  2  0  0  0  0
 39 66  1  0  0  0  0
 40 67  1  0  0  0  0
M  END
