
 OpenBabel10072616323D

 43 46  0  0  0  0  0  0  0  0999 V2000
    2.6017    0.2595    0.7189 C   0  0  0  0  0  0  0  0  0  0  0  0
    1.1192    0.1880    0.4998 C   0  0  0  0  0  0  0  0  0  0  0  0
    0.4736   -1.0490    0.4217 C   0  0  0  0  0  0  0  0  0  0  0  0
   -0.9129   -1.1174    0.2537 C   0  0  0  0  0  0  0  0  0  0  0  0
   -1.6851    0.0476    0.1612 C   0  0  0  0  0  0  0  0  0  0  0  0
   -1.0341    1.2862    0.2725 C   0  0  0  0  0  0  0  0  0  0  0  0
    0.3532    1.3558    0.4410 C   0  0  0  0  0  0  0  0  0  0  0  0
   -3.1125   -0.0256   -0.0037 N   0  0  0  0  0  0  0  0  0  0  0  0
   -3.8015    0.7777   -0.9113 C   0  0  0  0  0  0  0  0  0  0  0  0
   -5.0978    0.8472   -0.9822 N   0  0  0  0  0  0  0  0  0  0  0  0
   -5.8629    0.0707   -0.1131 C   0  0  0  0  0  0  0  0  0  0  0  0
   -7.2558    0.1707   -0.1701 C   0  0  0  0  0  0  0  0  0  0  0  0
   -8.0608   -0.6029    0.6702 C   0  0  0  0  0  0  0  0  0  0  0  0
   -7.4771   -1.4883    1.5739 C   0  0  0  0  0  0  0  0  0  0  0  0
   -6.0885   -1.6001    1.6334 C   0  0  0  0  0  0  0  0  0  0  0  0
   -5.2905   -0.8193    0.7859 C   0  0  0  0  0  0  0  0  0  0  0  0
   -3.8194   -0.8950    0.8425 C   0  0  0  0  0  0  0  0  0  0  0  0
   -3.3249   -1.6795    1.6509 O   0  0  0  0  0  0  0  0  0  0  0  0
   -3.0095    1.5168   -1.9388 C   0  0  0  0  0  0  0  0  0  0  0  0
   -3.3834    2.7515   -2.3038 C   0  0  0  0  0  0  0  0  0  0  0  0
   -2.6940    3.5410   -3.3283 C   0  0  0  0  0  0  0  0  0  0  0  0
   -1.3082    3.5604   -3.4786 C   0  0  0  0  0  0  0  0  0  0  0  0
   -0.6482    4.2983   -4.4038 N   0  0  0  0  0  0  0  0  0  0  0  0
   -1.4045    5.0636   -5.2182 C   0  0  0  0  0  0  0  0  0  0  0  0
   -2.7859    5.1323   -5.1437 C   0  0  0  0  0  0  0  0  0  0  0  0
   -3.4348    4.3644   -4.1790 C   0  0  0  0  0  0  0  0  0  0  0  0
    3.0985   -0.6395    0.3390 H   0  0  0  0  0  0  0  0  0  0  0  0
    2.8192    0.3552    1.7870 H   0  0  0  0  0  0  0  0  0  0  0  0
    3.0318    1.1158    0.1891 H   0  0  0  0  0  0  0  0  0  0  0  0
    1.0418   -1.9739    0.4958 H   0  0  0  0  0  0  0  0  0  0  0  0
   -1.3773   -2.0990    0.1860 H   0  0  0  0  0  0  0  0  0  0  0  0
   -1.5984    2.2157    0.2766 H   0  0  0  0  0  0  0  0  0  0  0  0
    0.8285    2.3294    0.5422 H   0  0  0  0  0  0  0  0  0  0  0  0
   -7.7132    0.8555   -0.8793 H   0  0  0  0  0  0  0  0  0  0  0  0
   -9.1431   -0.5141    0.6154 H   0  0  0  0  0  0  0  0  0  0  0  0
   -8.1001   -2.0894    2.2316 H   0  0  0  0  0  0  0  0  0  0  0  0
   -5.6303   -2.2879    2.3405 H   0  0  0  0  0  0  0  0  0  0  0  0
   -2.1748    0.9936   -2.3925 H   0  0  0  0  0  0  0  0  0  0  0  0
   -4.2605    3.2148   -1.8547 H   0  0  0  0  0  0  0  0  0  0  0  0
   -0.6593    2.9711   -2.8364 H   0  0  0  0  0  0  0  0  0  0  0  0
   -0.8541    5.6400   -5.9560 H   0  0  0  0  0  0  0  0  0  0  0  0
   -3.3454    5.7667   -5.8217 H   0  0  0  0  0  0  0  0  0  0  0  0
   -4.5194    4.4046   -4.1066 H   0  0  0  0  0  0  0  0  0  0  0  0
  1  2  1  0  0  0  0
  1 27  1  0  0  0  0
  1 28  1  0  0  0  0
  1 29  1  0  0  0  0
  2  3  2  0  0  0  0
  2  7  1  0  0  0  0
  3  4  1  0  0  0  0
  3 30  1  0  0  0  0
  4  5  2  0  0  0  0
  4 31  1  0  0  0  0
  5  6  1  0  0  0  0
  5  8  1  0  0  0  0
  6  7  2  0  0  0  0
  6 32  1  0  0  0  0
  7 33  1  0  0  0  0
  8  9  1  0  0  0  0
  8 17  1  0  0  0  0
  9 10  2  0  0  0  0
  9 19  1  0  0  0  0
 10 11  1  0  0  0  0
 11 12  2  0  0  0  0
 11 16  1  0  0  0  0
 12 13  1  0  0  0  0
 12 34  1  0  0  0  0
 13 14  2  0  0  0  0
 13 35  1  0  0  0  0
 14 15  1  0  0  0  0
 14 36  1  0  0  0  0
 15 16  2  0  0  0  0
 15 37  1  0  0  0  0
 16 17  1  0  0  0  0
 17 18  2  0  0  0  0
 19 20  2  0  0  0  0
 19 38  1  0  0  0  0
 20 21  1  0  0  0  0
 20 39  1  0  0  0  0
 21 22  2  0  0  0  0
 21 26  1  0  0  0  0
 22 23  1  0  0  0  0
 22 40  1  0  0  0  0
 23 24  2  0  0  0  0
 24 25  1  0  0  0  0
 24 41  1  0  0  0  0
 25 26  2  0  0  0  0
 25 42  1  0  0  0  0
 26 43  1  0  0  0  0
M  END
