
 OpenBabel10072620073D

 36 37  0  0  0  0  0  0  0  0999 V2000
   -1.3545    0.5883   -0.2274 C   0  0  0  0  0  0  0  0  0  0  0  0
   -1.0810   -0.9116   -0.2777 C   0  0  0  0  0  0  0  0  0  0  0  0
    0.3827   -1.2052   -0.5959 C   0  0  0  0  0  0  0  0  0  0  0  0
    1.3319   -0.4979    0.3825 C   0  0  0  0  0  0  0  0  0  0  0  0
    1.0464    1.0072    0.4292 C   0  0  0  0  0  0  0  0  0  0  0  0
   -0.4185    1.2962    0.7475 C   0  0  0  0  0  0  0  0  0  0  0  0
    2.7232   -0.7299    0.0146 N   0  0  0  0  0  0  0  0  0  0  0  0
    3.3521   -1.8981    0.3277 C   0  0  0  0  0  0  0  0  0  0  0  0
    2.8175   -2.8051    0.9619 O   0  0  0  0  0  0  0  0  0  0  0  0
    4.6116   -2.0764   -0.1603 N   0  0  0  0  0  0  0  0  0  0  0  0
    5.5653   -1.1849   -0.6826 C   0  0  0  0  0  0  0  0  0  0  0  0
    5.5224    0.2001   -0.5209 C   0  0  0  0  0  0  0  0  0  0  0  0
    6.5244    1.0104   -1.0729 C   0  0  0  0  0  0  0  0  0  0  0  0
    7.6139    0.4506   -1.7414 C   0  0  0  0  0  0  0  0  0  0  0  0
    7.6381   -0.9309   -1.9291 C   0  0  0  0  0  0  0  0  0  0  0  0
    6.6418   -1.7444   -1.3779 C   0  0  0  0  0  0  0  0  0  0  0  0
    8.5362    1.2687   -2.4017 N   0  0  0  0  0  0  0  0  0  0  0  0
   -2.3956    0.7636    0.0658 H   0  0  0  0  0  0  0  0  0  0  0  0
   -1.2282    1.0159   -1.2297 H   0  0  0  0  0  0  0  0  0  0  0  0
   -1.7231   -1.3778   -1.0338 H   0  0  0  0  0  0  0  0  0  0  0  0
   -1.3427   -1.3637    0.6869 H   0  0  0  0  0  0  0  0  0  0  0  0
    0.6020   -0.8819   -1.6221 H   0  0  0  0  0  0  0  0  0  0  0  0
    0.5480   -2.2888   -0.5725 H   0  0  0  0  0  0  0  0  0  0  0  0
    1.1759   -0.9161    1.3857 H   0  0  0  0  0  0  0  0  0  0  0  0
    1.3055    1.4666   -0.5336 H   0  0  0  0  0  0  0  0  0  0  0  0
    1.6857    1.4847    1.1816 H   0  0  0  0  0  0  0  0  0  0  0  0
   -0.5971    2.3769    0.7108 H   0  0  0  0  0  0  0  0  0  0  0  0
   -0.6417    0.9697    1.7708 H   0  0  0  0  0  0  0  0  0  0  0  0
    3.0252   -0.3329   -0.8638 H   0  0  0  0  0  0  0  0  0  0  0  0
    4.8957   -3.0452   -0.0792 H   0  0  0  0  0  0  0  0  0  0  0  0
    4.7460    0.6843    0.0623 H   0  0  0  0  0  0  0  0  0  0  0  0
    6.4508    2.0890   -0.9581 H   0  0  0  0  0  0  0  0  0  0  0  0
    8.4359   -1.3917   -2.5053 H   0  0  0  0  0  0  0  0  0  0  0  0
    6.7059   -2.8188   -1.5320 H   0  0  0  0  0  0  0  0  0  0  0  0
    8.6525    2.1832   -1.9760 H   0  0  0  0  0  0  0  0  0  0  0  0
    9.4270    0.8168   -2.5840 H   0  0  0  0  0  0  0  0  0  0  0  0
  1  2  1  0  0  0  0
  1  6  1  0  0  0  0
  1 18  1  0  0  0  0
  1 19  1  0  0  0  0
  2  3  1  0  0  0  0
  2 20  1  0  0  0  0
  2 21  1  0  0  0  0
  3  4  1  0  0  0  0
  3 22  1  0  0  0  0
  3 23  1  0  0  0  0
  4  5  1  0  0  0  0
  4  7  1  0  0  0  0
  4 24  1  0  0  0  0
  5  6  1  0  0  0  0
  5 25  1  0  0  0  0
  5 26  1  0  0  0  0
  6 27  1  0  0  0  0
  6 28  1  0  0  0  0
  7  8  1  0  0  0  0
  7 29  1  0  0  0  0
  8  9  2  0  0  0  0
  8 10  1  0  0  0  0
 10 11  1  0  0  0  0
 10 30  1  0  0  0  0
 11 12  2  0  0  0  0
 11 16  1  0  0  0  0
 12 13  1  0  0  0  0
 12 31  1  0  0  0  0
 13 14  2  0  0  0  0
 13 32  1  0  0  0  0
 14 15  1  0  0  0  0
 14 17  1  0  0  0  0
 15 16  2  0  0  0  0
 15 33  1  0  0  0  0
 16 34  1  0  0  0  0
 17 35  1  0  0  0  0
 17 36  1  0  0  0  0
M  END
