
 OpenBabel10072619523D

 41 43  0  0  0  0  0  0  0  0999 V2000
    1.2707    1.0337   -1.5667 C   0  0  0  0  0  0  0  0  0  0  0  0
    2.7937    0.4790   -0.8504 S   0  0  0  0  0  0  0  0  0  0  0  0
    2.5017   -0.6860   -0.0339 O   0  0  0  0  0  0  0  0  0  0  0  0
    3.7833    0.4083   -1.9114 O   0  0  0  0  0  0  0  0  0  0  0  0
    3.3094    1.7586    0.2450 C   0  0  0  0  0  0  0  0  0  0  0  0
    2.4896    2.8266    0.2914 N   0  0  0  0  0  0  0  0  0  0  0  0
    2.8226    3.8665    1.1139 N   0  0  0  0  0  0  0  0  0  0  0  0
    3.9563    3.8251    1.8642 C   0  0  0  0  0  0  0  0  0  0  0  0
    4.7959    2.7124    1.8148 C   0  0  0  0  0  0  0  0  0  0  0  0
    4.4685    1.6467    0.9826 C   0  0  0  0  0  0  0  0  0  0  0  0
    4.2169    5.0053    2.7079 C   0  0  0  0  0  0  0  0  0  0  0  0
    3.1511    5.7212    3.2862 C   0  0  0  0  0  0  0  0  0  0  0  0
    3.3814    6.8456    4.0825 C   0  0  0  0  0  0  0  0  0  0  0  0
    4.6819    7.2738    4.3305 C   0  0  0  0  0  0  0  0  0  0  0  0
    5.7531    6.5875    3.7642 C   0  0  0  0  0  0  0  0  0  0  0  0
    5.5222    5.4669    2.9605 C   0  0  0  0  0  0  0  0  0  0  0  0
    2.2751    7.5068    4.6814 N   0  0  0  0  0  0  0  0  0  0  0  0
    1.9654    7.2399    6.3211 S   0  0  0  0  0  0  0  0  0  0  0  0
    0.5743    7.5715    6.5436 O   0  0  0  0  0  0  0  0  0  0  0  0
    2.4815    5.9377    6.6897 O   0  0  0  0  0  0  0  0  0  0  0  0
    2.9355    8.4687    7.1245 C   0  0  0  0  0  0  0  0  0  0  0  0
    3.9313    8.1028    8.0364 C   0  0  0  0  0  0  0  0  0  0  0  0
    4.6884    9.0958    8.6609 C   0  0  0  0  0  0  0  0  0  0  0  0
    4.4489   10.4420    8.3767 C   0  0  0  0  0  0  0  0  0  0  0  0
    3.4512   10.7976    7.4675 C   0  0  0  0  0  0  0  0  0  0  0  0
    2.6954    9.8075    6.8453 C   0  0  0  0  0  0  0  0  0  0  0  0
    1.7555   10.1785    5.9656 F   0  0  0  0  0  0  0  0  0  0  0  0
    0.9215    0.2591   -2.2535 H   0  0  0  0  0  0  0  0  0  0  0  0
    1.4465    1.9586   -2.1194 H   0  0  0  0  0  0  0  0  0  0  0  0
    0.5328    1.1806   -0.7759 H   0  0  0  0  0  0  0  0  0  0  0  0
    5.6902    2.6569    2.4275 H   0  0  0  0  0  0  0  0  0  0  0  0
    5.0944    0.7633    0.9184 H   0  0  0  0  0  0  0  0  0  0  0  0
    2.1288    5.3838    3.1225 H   0  0  0  0  0  0  0  0  0  0  0  0
    4.8748    8.1499    4.9414 H   0  0  0  0  0  0  0  0  0  0  0  0
    6.7705    6.9274    3.9427 H   0  0  0  0  0  0  0  0  0  0  0  0
    6.3828    4.9682    2.5184 H   0  0  0  0  0  0  0  0  0  0  0  0
    1.4046    7.5584    4.1522 H   0  0  0  0  0  0  0  0  0  0  0  0
    4.1210    7.0558    8.2648 H   0  0  0  0  0  0  0  0  0  0  0  0
    5.4640    8.8208    9.3726 H   0  0  0  0  0  0  0  0  0  0  0  0
    5.0377   11.2144    8.8664 H   0  0  0  0  0  0  0  0  0  0  0  0
    3.2569   11.8416    7.2402 H   0  0  0  0  0  0  0  0  0  0  0  0
  1  2  1  0  0  0  0
  1 28  1  0  0  0  0
  1 29  1  0  0  0  0
  1 30  1  0  0  0  0
  2  3  2  0  0  0  0
  2  4  2  0  0  0  0
  2  5  1  0  0  0  0
  5  6  2  0  0  0  0
  5 10  1  0  0  0  0
  6  7  1  0  0  0  0
  7  8  2  0  0  0  0
  8  9  1  0  0  0  0
  8 11  1  0  0  0  0
  9 10  2  0  0  0  0
  9 31  1  0  0  0  0
 10 32  1  0  0  0  0
 11 12  2  0  0  0  0
 11 16  1  0  0  0  0
 12 13  1  0  0  0  0
 12 33  1  0  0  0  0
 13 14  2  0  0  0  0
 13 17  1  0  0  0  0
 14 15  1  0  0  0  0
 14 34  1  0  0  0  0
 15 16  2  0  0  0  0
 15 35  1  0  0  0  0
 16 36  1  0  0  0  0
 17 18  1  0  0  0  0
 17 37  1  0  0  0  0
 18 19  2  0  0  0  0
 18 20  2  0  0  0  0
 18 21  1  0  0  0  0
 21 22  2  0  0  0  0
 21 26  1  0  0  0  0
 22 23  1  0  0  0  0
 22 38  1  0  0  0  0
 23 24  2  0  0  0  0
 23 39  1  0  0  0  0
 24 25  1  0  0  0  0
 24 40  1  0  0  0  0
 25 26  2  0  0  0  0
 25 41  1  0  0  0  0
 26 27  1  0  0  0  0
M  END
