
 OpenBabel10072620073D

 42 44  0  0  0  0  0  0  0  0999 V2000
   -5.0129   -3.9156   -0.1383 C   0  0  0  0  0  0  0  0  0  0  0  0
   -3.6917   -3.6868   -0.5354 C   0  0  0  0  0  0  0  0  0  0  0  0
   -2.9234   -2.6914    0.0828 C   0  0  0  0  0  0  0  0  0  0  0  0
   -3.5241   -1.9106    1.0876 C   0  0  0  0  0  0  0  0  0  0  0  0
   -4.8595   -2.1198    1.4828 C   0  0  0  0  0  0  0  0  0  0  0  0
   -5.5945   -3.1407    0.8653 C   0  0  0  0  0  0  0  0  0  0  0  0
   -5.5183   -1.2338    2.5158 C   0  0  0  0  0  0  0  0  0  0  0  0
   -4.6580   -0.3564    3.1043 F   0  0  0  0  0  0  0  0  0  0  0  0
   -6.5136   -0.4739    1.9786 F   0  0  0  0  0  0  0  0  0  0  0  0
   -6.0909   -1.9326    3.5346 F   0  0  0  0  0  0  0  0  0  0  0  0
   -1.5063   -2.3930   -0.3567 C   0  0  0  0  0  0  0  0  0  0  0  0
   -0.5358   -3.4714   -0.1510 N   0  0  0  0  0  0  0  0  0  0  0  0
   -0.3737   -4.2601    0.9605 C   0  0  0  0  0  0  0  0  0  0  0  0
    0.8483   -4.8753    0.8390 C   0  0  0  0  0  0  0  0  0  0  0  0
    1.3269   -4.4410   -0.4157 C   0  0  0  0  0  0  0  0  0  0  0  0
    0.4839   -3.6099   -1.0336 N   0  0  0  0  0  0  0  0  0  0  0  0
    1.5549   -5.6881    1.7240 N   0  0  0  0  0  0  0  0  0  0  0  0
    0.9041   -6.7074    2.8833 S   0  0  0  0  0  0  0  0  0  0  0  0
    2.0120   -7.1979    3.6763 O   0  0  0  0  0  0  0  0  0  0  0  0
   -0.2542   -6.1100    3.5079 O   0  0  0  0  0  0  0  0  0  0  0  0
    0.3524   -8.0593    1.8605 C   0  0  0  0  0  0  0  0  0  0  0  0
   -0.9919   -8.1358    1.4826 C   0  0  0  0  0  0  0  0  0  0  0  0
   -1.4345   -9.1967    0.6899 C   0  0  0  0  0  0  0  0  0  0  0  0
   -0.5369  -10.1834    0.2788 C   0  0  0  0  0  0  0  0  0  0  0  0
    0.8109  -10.0952    0.6605 C   0  0  0  0  0  0  0  0  0  0  0  0
    1.2682   -9.0358    1.4554 C   0  0  0  0  0  0  0  0  0  0  0  0
    1.7561  -11.1258    0.2186 N   0  3  0  0  0  0  0  0  0  0  0  0
    1.2866  -12.1625   -0.2722 O   0  0  0  0  0  0  0  0  0  0  0  0
    2.9644  -10.8918    0.3526 O   0  5  0  0  0  0  0  0  0  0  0  0
   -5.6003   -4.6903   -0.6264 H   0  0  0  0  0  0  0  0  0  0  0  0
   -3.2703   -4.2967   -1.3329 H   0  0  0  0  0  0  0  0  0  0  0  0
   -2.9517   -1.1112    1.5598 H   0  0  0  0  0  0  0  0  0  0  0  0
   -6.6272   -3.3323    1.1579 H   0  0  0  0  0  0  0  0  0  0  0  0
   -1.1005   -1.5333    0.1905 H   0  0  0  0  0  0  0  0  0  0  0  0
   -1.5119   -2.1304   -1.4207 H   0  0  0  0  0  0  0  0  0  0  0  0
   -1.0971   -4.2504    1.7638 H   0  0  0  0  0  0  0  0  0  0  0  0
    2.2668   -4.6880   -0.8933 H   0  0  0  0  0  0  0  0  0  0  0  0
    2.5476   -5.8531    1.5643 H   0  0  0  0  0  0  0  0  0  0  0  0
   -1.6942   -7.3668    1.7976 H   0  0  0  0  0  0  0  0  0  0  0  0
   -2.4795   -9.2558    0.3915 H   0  0  0  0  0  0  0  0  0  0  0  0
   -0.9018  -11.0088   -0.3315 H   0  0  0  0  0  0  0  0  0  0  0  0
    2.3139   -8.9624    1.7492 H   0  0  0  0  0  0  0  0  0  0  0  0
  1  2  2  0  0  0  0
  1  6  1  0  0  0  0
  1 30  1  0  0  0  0
  2  3  1  0  0  0  0
  2 31  1  0  0  0  0
  3  4  2  0  0  0  0
  3 11  1  0  0  0  0
  4  5  1  0  0  0  0
  4 32  1  0  0  0  0
  5  6  2  0  0  0  0
  5  7  1  0  0  0  0
  6 33  1  0  0  0  0
  7  8  1  0  0  0  0
  7  9  1  0  0  0  0
  7 10  1  0  0  0  0
 11 12  1  0  0  0  0
 11 34  1  0  0  0  0
 11 35  1  0  0  0  0
 12 13  1  0  0  0  0
 12 16  1  0  0  0  0
 13 14  2  0  0  0  0
 13 36  1  0  0  0  0
 14 15  1  0  0  0  0
 14 17  1  0  0  0  0
 15 16  2  0  0  0  0
 15 37  1  0  0  0  0
 17 18  1  0  0  0  0
 17 38  1  0  0  0  0
 18 19  2  0  0  0  0
 18 20  2  0  0  0  0
 18 21  1  0  0  0  0
 21 22  2  0  0  0  0
 21 26  1  0  0  0  0
 22 23  1  0  0  0  0
 22 39  1  0  0  0  0
 23 24  2  0  0  0  0
 23 40  1  0  0  0  0
 24 25  1  0  0  0  0
 24 41  1  0  0  0  0
 25 26  2  0  0  0  0
 25 27  1  0  0  0  0
 26 42  1  0  0  0  0
 27 28  2  0  0  0  0
 27 29  1  0  0  0  0
M  CHG  2  27   1  29  -1
M  END
