
 OpenBabel10072616333D

 48 52  0  0  0  0  0  0  0  0999 V2000
    2.3392    1.5248    0.5344 C   0  0  0  0  0  0  0  0  0  0  0  0
    3.0621    0.2722    0.5169 N   0  0  0  0  0  0  0  0  0  0  0  0
    2.4929   -0.9564    0.3022 C   0  0  0  0  0  0  0  0  0  0  0  0
    3.4914   -1.9062    0.3698 C   0  0  0  0  0  0  0  0  0  0  0  0
    4.7188   -1.2181    0.6284 C   0  0  0  0  0  0  0  0  0  0  0  0
    6.0608   -1.6233    0.8037 C   0  0  0  0  0  0  0  0  0  0  0  0
    7.0471   -0.6682    1.0748 C   0  0  0  0  0  0  0  0  0  0  0  0
    6.7192    0.6798    1.1717 C   0  0  0  0  0  0  0  0  0  0  0  0
    5.4019    1.1112    0.9965 C   0  0  0  0  0  0  0  0  0  0  0  0
    4.4190    0.1452    0.7252 C   0  0  0  0  0  0  0  0  0  0  0  0
    3.3265   -3.3174    0.2093 C   0  0  0  0  0  0  0  0  0  0  0  0
    2.1550   -3.9691    0.1239 C   0  0  0  0  0  0  0  0  0  0  0  0
    2.1331   -5.4517   -0.0368 C   0  0  0  0  0  0  0  0  0  0  0  0
    2.9613   -6.1515    0.6815 N   0  0  0  0  0  0  0  0  0  0  0  0
    2.8827   -7.5420    0.6429 C   0  0  0  0  0  0  0  0  0  0  0  0
    3.8001   -8.2884    1.3874 C   0  0  0  0  0  0  0  0  0  0  0  0
    3.7495   -9.6844    1.3906 C   0  0  0  0  0  0  0  0  0  0  0  0
    2.7732  -10.3475    0.6492 C   0  0  0  0  0  0  0  0  0  0  0  0
    1.8497   -9.6107   -0.0917 C   0  0  0  0  0  0  0  0  0  0  0  0
    1.9100   -8.2105   -0.0895 C   0  0  0  0  0  0  0  0  0  0  0  0
    0.9734   -7.4035   -0.8914 C   0  0  0  0  0  0  0  0  0  0  0  0
    0.1316   -8.0089   -1.5562 O   0  0  0  0  0  0  0  0  0  0  0  0
    1.1577   -6.0111   -0.8655 N   0  0  0  0  0  0  0  0  0  0  0  0
    0.3627   -5.2202   -1.7695 C   0  0  0  0  0  0  0  0  0  0  0  0
   -1.0186   -5.4415   -1.8970 C   0  0  0  0  0  0  0  0  0  0  0  0
   -1.7919   -4.6765   -2.7772 C   0  0  0  0  0  0  0  0  0  0  0  0
   -1.1894   -3.6872   -3.5470 C   0  0  0  0  0  0  0  0  0  0  0  0
    0.1807   -3.4615   -3.4505 C   0  0  0  0  0  0  0  0  0  0  0  0
    0.9524   -4.2303   -2.5728 C   0  0  0  0  0  0  0  0  0  0  0  0
   -2.1384   -2.7418   -4.6249 Cl  0  0  0  0  0  0  0  0  0  0  0  0
    1.2837    1.3429    0.3170 H   0  0  0  0  0  0  0  0  0  0  0  0
    2.7653    2.1819   -0.2284 H   0  0  0  0  0  0  0  0  0  0  0  0
    2.4427    1.9682    1.5282 H   0  0  0  0  0  0  0  0  0  0  0  0
    1.4301   -1.0468    0.1236 H   0  0  0  0  0  0  0  0  0  0  0  0
    6.3321   -2.6726    0.7374 H   0  0  0  0  0  0  0  0  0  0  0  0
    8.0771   -0.9855    1.2171 H   0  0  0  0  0  0  0  0  0  0  0  0
    7.4963    1.4089    1.3892 H   0  0  0  0  0  0  0  0  0  0  0  0
    5.1547    2.1651    1.0750 H   0  0  0  0  0  0  0  0  0  0  0  0
    4.2416   -3.9063    0.1603 H   0  0  0  0  0  0  0  0  0  0  0  0
    1.1998   -3.4658    0.2005 H   0  0  0  0  0  0  0  0  0  0  0  0
    4.5595   -7.7732    1.9711 H   0  0  0  0  0  0  0  0  0  0  0  0
    4.4720  -10.2512    1.9723 H   0  0  0  0  0  0  0  0  0  0  0  0
    2.7333  -11.4342    0.6479 H   0  0  0  0  0  0  0  0  0  0  0  0
    1.0907  -10.1268   -0.6759 H   0  0  0  0  0  0  0  0  0  0  0  0
   -1.5172   -6.2041   -1.3017 H   0  0  0  0  0  0  0  0  0  0  0  0
   -2.8598   -4.8653   -2.8549 H   0  0  0  0  0  0  0  0  0  0  0  0
    0.6580   -2.7005   -4.0618 H   0  0  0  0  0  0  0  0  0  0  0  0
    2.0276   -4.0640   -2.5584 H   0  0  0  0  0  0  0  0  0  0  0  0
  1  2  1  0  0  0  0
  1 31  1  0  0  0  0
  1 32  1  0  0  0  0
  1 33  1  0  0  0  0
  2  3  1  0  0  0  0
  2 10  1  0  0  0  0
  3  4  2  0  0  0  0
  3 34  1  0  0  0  0
  4  5  1  0  0  0  0
  4 11  1  0  0  0  0
  5  6  2  0  0  0  0
  5 10  1  0  0  0  0
  6  7  1  0  0  0  0
  6 35  1  0  0  0  0
  7  8  2  0  0  0  0
  7 36  1  0  0  0  0
  8  9  1  0  0  0  0
  8 37  1  0  0  0  0
  9 10  2  0  0  0  0
  9 38  1  0  0  0  0
 11 12  2  0  0  0  0
 11 39  1  0  0  0  0
 12 13  1  0  0  0  0
 12 40  1  0  0  0  0
 13 14  2  0  0  0  0
 13 23  1  0  0  0  0
 14 15  1  0  0  0  0
 15 16  2  0  0  0  0
 15 20  1  0  0  0  0
 16 17  1  0  0  0  0
 16 41  1  0  0  0  0
 17 18  2  0  0  0  0
 17 42  1  0  0  0  0
 18 19  1  0  0  0  0
 18 43  1  0  0  0  0
 19 20  2  0  0  0  0
 19 44  1  0  0  0  0
 20 21  1  0  0  0  0
 21 22  2  0  0  0  0
 21 23  1  0  0  0  0
 23 24  1  0  0  0  0
 24 25  2  0  0  0  0
 24 29  1  0  0  0  0
 25 26  1  0  0  0  0
 25 45  1  0  0  0  0
 26 27  2  0  0  0  0
 26 46  1  0  0  0  0
 27 28  1  0  0  0  0
 27 30  1  0  0  0  0
 28 29  2  0  0  0  0
 28 47  1  0  0  0  0
 29 48  1  0  0  0  0
M  END
