
 OpenBabel10072620063D

 22 21  0  0  0  0  0  0  0  0999 V2000
    1.1222    1.6472    0.6448 C   0  0  0  0  0  0  0  0  0  0  0  0
    2.6163    1.7341    0.5811 C   0  0  0  0  0  0  0  0  0  0  0  0
    3.2362    2.7253    0.2238 O   0  0  0  0  0  0  0  0  0  0  0  0
    3.1676    0.5581    0.9858 O   0  0  0  0  0  0  0  0  0  0  0  0
    4.6066    0.5041    0.9498 C   0  0  0  0  0  0  0  0  0  0  0  0
    5.2078    1.1676    2.1998 C   0  0  0  0  0  0  0  0  0  0  0  0
    6.6637    0.9722    2.3386 N   0  0  0  0  0  0  0  0  0  0  0  0
    7.4047    1.7056    1.3084 C   0  0  0  0  0  0  0  0  0  0  0  0
    7.1013    1.4153    3.6657 C   0  0  0  0  0  0  0  0  0  0  0  0
    0.6897    2.5936    0.3074 H   0  0  0  0  0  0  0  0  0  0  0  0
    0.8051    1.4664    1.6749 H   0  0  0  0  0  0  0  0  0  0  0  0
    0.7685    0.8495   -0.0132 H   0  0  0  0  0  0  0  0  0  0  0  0
    4.9745    0.9505    0.0190 H   0  0  0  0  0  0  0  0  0  0  0  0
    4.8769   -0.5575    0.9259 H   0  0  0  0  0  0  0  0  0  0  0  0
    4.6996    0.7251    3.0676 H   0  0  0  0  0  0  0  0  0  0  0  0
    4.9511    2.2345    2.2237 H   0  0  0  0  0  0  0  0  0  0  0  0
    7.1793    1.3203    0.3092 H   0  0  0  0  0  0  0  0  0  0  0  0
    8.4843    1.5743    1.4459 H   0  0  0  0  0  0  0  0  0  0  0  0
    7.1855    2.7793    1.3260 H   0  0  0  0  0  0  0  0  0  0  0  0
    6.5937    0.8427    4.4501 H   0  0  0  0  0  0  0  0  0  0  0  0
    6.9045    2.4807    3.8324 H   0  0  0  0  0  0  0  0  0  0  0  0
    8.1746    1.2372    3.7966 H   0  0  0  0  0  0  0  0  0  0  0  0
  1  2  1  0  0  0  0
  1 10  1  0  0  0  0
  1 11  1  0  0  0  0
  1 12  1  0  0  0  0
  2  3  2  0  0  0  0
  2  4  1  0  0  0  0
  4  5  1  0  0  0  0
  5  6  1  0  0  0  0
  5 13  1  0  0  0  0
  5 14  1  0  0  0  0
  6  7  1  0  0  0  0
  6 15  1  0  0  0  0
  6 16  1  0  0  0  0
  7  8  1  0  0  0  0
  7  9  1  0  0  0  0
  8 17  1  0  0  0  0
  8 18  1  0  0  0  0
  8 19  1  0  0  0  0
  9 20  1  0  0  0  0
  9 21  1  0  0  0  0
  9 22  1  0  0  0  0
M  END
