
 OpenBabel10072619553D

108107  0  0  0  0  0  0  0  0999 V2000
    0.6022   -0.1692    0.1356 C   0  0  0  0  0  0  0  0  0  0  0  0
    2.1222   -0.1428    0.1228 C   0  0  0  0  0  0  0  0  0  0  0  0
    2.6567    1.0742   -0.6312 C   0  0  0  0  0  0  0  0  0  0  0  0
    4.1862    1.0939   -0.6398 C   0  0  0  0  0  0  0  0  0  0  0  0
    4.7204    2.3119   -1.3943 C   0  0  0  0  0  0  0  0  0  0  0  0
    6.2492    2.3355   -1.4046 C   0  0  0  0  0  0  0  0  0  0  0  0
    6.7790    3.5554   -2.1605 C   0  0  0  0  0  0  0  0  0  0  0  0
    8.3079    3.5789   -2.1710 C   0  0  0  0  0  0  0  0  0  0  0  0
    8.8463    4.7957   -2.9259 C   0  0  0  0  0  0  0  0  0  0  0  0
   10.3769    4.8094   -2.9314 C   0  0  0  0  0  0  0  0  0  0  0  0
   10.9238    6.0233   -3.6848 C   0  0  0  0  0  0  0  0  0  0  0  0
   12.4548    6.0382   -3.6919 C   0  0  0  0  0  0  0  0  0  0  0  0
   12.9940    7.2552   -4.4473 C   0  0  0  0  0  0  0  0  0  0  0  0
   14.5246    7.2795   -4.4621 C   0  0  0  0  0  0  0  0  0  0  0  0
   15.0505    8.4999   -5.2212 C   0  0  0  0  0  0  0  0  0  0  0  0
   16.5802    8.5351   -5.2470 C   0  0  0  0  0  0  0  0  0  0  0  0
   17.0903    9.7591   -6.0113 C   0  0  0  0  0  0  0  0  0  0  0  0
   18.6187    9.8057   -6.0443 C   0  0  0  0  0  0  0  0  0  0  0  0
   19.1198   11.0368   -6.8029 C   0  0  0  0  0  0  0  0  0  0  0  0
   20.6474   11.0941   -6.8214 C   0  0  0  0  0  0  0  0  0  0  0  0
   21.1542   12.3389   -7.5524 C   0  0  0  0  0  0  0  0  0  0  0  0
   22.6818   12.3910   -7.5462 C   0  0  0  0  0  0  0  0  0  0  0  0
   23.2102   13.6367   -8.2594 C   0  0  0  0  0  0  0  0  0  0  0  0
   24.7391   13.6551   -8.2525 C   0  0  0  0  0  0  0  0  0  0  0  0
   25.2975   14.8678   -8.9983 C   0  0  0  0  0  0  0  0  0  0  0  0
   26.8268   14.8426   -9.0001 C   0  0  0  0  0  0  0  0  0  0  0  0
   27.4160   16.0212   -9.7766 C   0  0  0  0  0  0  0  0  0  0  0  0
   28.9441   15.9456   -9.8024 C   0  0  0  0  0  0  0  0  0  0  0  0
   29.5516   17.0879  -10.6185 C   0  0  0  0  0  0  0  0  0  0  0  0
   31.0844   17.0910  -10.6040 C   0  0  0  0  0  0  0  0  0  0  0  0
   31.6896   15.8505  -11.2589 C   0  0  0  0  0  0  0  0  0  0  0  0
   33.2095   15.9350  -11.3673 C   0  0  0  0  0  0  0  0  0  0  0  0
   33.7104   14.7568  -12.0188 O   0  0  0  0  0  0  0  0  0  0  0  0
   33.9139   13.6821  -11.2150 C   0  0  0  0  0  0  0  0  0  0  0  0
   33.7467   13.6549  -10.0051 O   0  0  0  0  0  0  0  0  0  0  0  0
   34.3362   12.4868  -12.0035 C   0  0  0  0  0  0  0  0  0  0  0  0
   34.6227   12.5489  -13.3152 C   0  0  0  0  0  0  0  0  0  0  0  0
   34.4124   11.2087  -11.2237 C   0  0  0  0  0  0  0  0  0  0  0  0
    0.2437   -1.0482    0.6803 H   0  0  0  0  0  0  0  0  0  0  0  0
    0.2017   -0.2137   -0.8823 H   0  0  0  0  0  0  0  0  0  0  0  0
    0.1981    0.7223    0.6257 H   0  0  0  0  0  0  0  0  0  0  0  0
    2.4936   -1.0624   -0.3442 H   0  0  0  0  0  0  0  0  0  0  0  0
    2.4900   -0.1317    1.1554 H   0  0  0  0  0  0  0  0  0  0  0  0
    2.2800    1.9918   -0.1629 H   0  0  0  0  0  0  0  0  0  0  0  0
    2.2835    1.0613   -1.6625 H   0  0  0  0  0  0  0  0  0  0  0  0
    4.5631    0.1766   -1.1084 H   0  0  0  0  0  0  0  0  0  0  0  0
    4.5596    1.1072    0.3915 H   0  0  0  0  0  0  0  0  0  0  0  0
    4.3426    3.2287   -0.9257 H   0  0  0  0  0  0  0  0  0  0  0  0
    4.3468    2.2978   -2.4254 H   0  0  0  0  0  0  0  0  0  0  0  0
    6.6282    1.4190   -1.8733 H   0  0  0  0  0  0  0  0  0  0  0  0
    6.6239    2.3500   -0.3738 H   0  0  0  0  0  0  0  0  0  0  0  0
    6.3997    4.4714   -1.6913 H   0  0  0  0  0  0  0  0  0  0  0  0
    6.4037    3.5403   -3.1910 H   0  0  0  0  0  0  0  0  0  0  0  0
    8.6848    2.6612   -2.6388 H   0  0  0  0  0  0  0  0  0  0  0  0
    8.6809    3.5929   -1.1397 H   0  0  0  0  0  0  0  0  0  0  0  0
    8.4712    5.7142   -2.4582 H   0  0  0  0  0  0  0  0  0  0  0  0
    8.4741    4.7829   -3.9575 H   0  0  0  0  0  0  0  0  0  0  0  0
   10.7494    3.8893   -3.3980 H   0  0  0  0  0  0  0  0  0  0  0  0
   10.7465    4.8209   -1.8989 H   0  0  0  0  0  0  0  0  0  0  0  0
   10.5507    6.9428   -3.2176 H   0  0  0  0  0  0  0  0  0  0  0  0
   10.5529    6.0114   -4.7168 H   0  0  0  0  0  0  0  0  0  0  0  0
   12.8294    5.1198   -4.1599 H   0  0  0  0  0  0  0  0  0  0  0  0
   12.8275    6.0513   -2.6605 H   0  0  0  0  0  0  0  0  0  0  0  0
   12.6182    8.1729   -3.9786 H   0  0  0  0  0  0  0  0  0  0  0  0
   12.6185    7.2421   -5.4778 H   0  0  0  0  0  0  0  0  0  0  0  0
   14.9026    6.3633   -4.9318 H   0  0  0  0  0  0  0  0  0  0  0  0
   14.9024    7.2957   -3.4326 H   0  0  0  0  0  0  0  0  0  0  0  0
   14.6717    9.4151   -4.7500 H   0  0  0  0  0  0  0  0  0  0  0  0
   14.6682    8.4842   -6.2491 H   0  0  0  0  0  0  0  0  0  0  0  0
   16.9619    7.6214   -5.7185 H   0  0  0  0  0  0  0  0  0  0  0  0
   16.9654    8.5552   -4.2203 H   0  0  0  0  0  0  0  0  0  0  0  0
   16.7066   10.6714   -5.5386 H   0  0  0  0  0  0  0  0  0  0  0  0
   16.7020    9.7389   -7.0369 H   0  0  0  0  0  0  0  0  0  0  0  0
   19.0047    8.8965   -6.5211 H   0  0  0  0  0  0  0  0  0  0  0  0
   19.0073    9.8231   -5.0188 H   0  0  0  0  0  0  0  0  0  0  0  0
   18.7241   11.9443   -6.3307 H   0  0  0  0  0  0  0  0  0  0  0  0
   18.7403   11.0150   -7.8317 H   0  0  0  0  0  0  0  0  0  0  0  0
   21.0425   10.1957   -7.3111 H   0  0  0  0  0  0  0  0  0  0  0  0
   21.0268   11.0941   -5.7922 H   0  0  0  0  0  0  0  0  0  0  0  0
   20.7527   13.2391   -7.0719 H   0  0  0  0  0  0  0  0  0  0  0  0
   20.7893   12.3337   -8.5865 H   0  0  0  0  0  0  0  0  0  0  0  0
   23.0789   11.4925   -8.0345 H   0  0  0  0  0  0  0  0  0  0  0  0
   23.0448   12.3820   -6.5111 H   0  0  0  0  0  0  0  0  0  0  0  0
   22.8282   14.5374   -7.7633 H   0  0  0  0  0  0  0  0  0  0  0  0
   22.8447   13.6536   -9.2934 H   0  0  0  0  0  0  0  0  0  0  0  0
   25.1166   12.7359   -8.7175 H   0  0  0  0  0  0  0  0  0  0  0  0
   25.1009   13.6633   -7.2168 H   0  0  0  0  0  0  0  0  0  0  0  0
   24.9426   15.7916   -8.5259 H   0  0  0  0  0  0  0  0  0  0  0  0
   24.9261   14.8677  -10.0302 H   0  0  0  0  0  0  0  0  0  0  0  0
   27.1749   13.9015   -9.4445 H   0  0  0  0  0  0  0  0  0  0  0  0
   27.1934   14.8659   -7.9663 H   0  0  0  0  0  0  0  0  0  0  0  0
   27.0995   16.9644   -9.3150 H   0  0  0  0  0  0  0  0  0  0  0  0
   27.0329   16.0148  -10.8045 H   0  0  0  0  0  0  0  0  0  0  0  0
   29.2419   14.9827  -10.2314 H   0  0  0  0  0  0  0  0  0  0  0  0
   29.3332   15.9778   -8.7777 H   0  0  0  0  0  0  0  0  0  0  0  0
   29.1996   18.0461  -10.2178 H   0  0  0  0  0  0  0  0  0  0  0  0
   29.1953   17.0319  -11.6542 H   0  0  0  0  0  0  0  0  0  0  0  0
   31.4409   17.1769   -9.5703 H   0  0  0  0  0  0  0  0  0  0  0  0
   31.4317   17.9864  -11.1337 H   0  0  0  0  0  0  0  0  0  0  0  0
   31.2661   15.7071  -12.2606 H   0  0  0  0  0  0  0  0  0  0  0  0
   31.4247   14.9532  -10.6894 H   0  0  0  0  0  0  0  0  0  0  0  0
   33.6857   16.0782  -10.3902 H   0  0  0  0  0  0  0  0  0  0  0  0
   33.4950   16.7871  -11.9927 H   0  0  0  0  0  0  0  0  0  0  0  0
   34.5689   13.4761  -13.8778 H   0  0  0  0  0  0  0  0  0  0  0  0
   34.9238   11.6644  -13.8681 H   0  0  0  0  0  0  0  0  0  0  0  0
   33.4401   10.9744  -10.7771 H   0  0  0  0  0  0  0  0  0  0  0  0
   35.1541   11.2886  -10.4222 H   0  0  0  0  0  0  0  0  0  0  0  0
   34.6979   10.3605  -11.8551 H   0  0  0  0  0  0  0  0  0  0  0  0
  1  2  1  0  0  0  0
  1 39  1  0  0  0  0
  1 40  1  0  0  0  0
  1 41  1  0  0  0  0
  2  3  1  0  0  0  0
  2 42  1  0  0  0  0
  2 43  1  0  0  0  0
  3  4  1  0  0  0  0
  3 44  1  0  0  0  0
  3 45  1  0  0  0  0
  4  5  1  0  0  0  0
  4 46  1  0  0  0  0
  4 47  1  0  0  0  0
  5  6  1  0  0  0  0
  5 48  1  0  0  0  0
  5 49  1  0  0  0  0
  6  7  1  0  0  0  0
  6 50  1  0  0  0  0
  6 51  1  0  0  0  0
  7  8  1  0  0  0  0
  7 52  1  0  0  0  0
  7 53  1  0  0  0  0
  8  9  1  0  0  0  0
  8 54  1  0  0  0  0
  8 55  1  0  0  0  0
  9 10  1  0  0  0  0
  9 56  1  0  0  0  0
  9 57  1  0  0  0  0
 10 11  1  0  0  0  0
 10 58  1  0  0  0  0
 10 59  1  0  0  0  0
 11 12  1  0  0  0  0
 11 60  1  0  0  0  0
 11 61  1  0  0  0  0
 12 13  1  0  0  0  0
 12 62  1  0  0  0  0
 12 63  1  0  0  0  0
 13 14  1  0  0  0  0
 13 64  1  0  0  0  0
 13 65  1  0  0  0  0
 14 15  1  0  0  0  0
 14 66  1  0  0  0  0
 14 67  1  0  0  0  0
 15 16  1  0  0  0  0
 15 68  1  0  0  0  0
 15 69  1  0  0  0  0
 16 17  1  0  0  0  0
 16 70  1  0  0  0  0
 16 71  1  0  0  0  0
 17 18  1  0  0  0  0
 17 72  1  0  0  0  0
 17 73  1  0  0  0  0
 18 19  1  0  0  0  0
 18 74  1  0  0  0  0
 18 75  1  0  0  0  0
 19 20  1  0  0  0  0
 19 76  1  0  0  0  0
 19 77  1  0  0  0  0
 20 21  1  0  0  0  0
 20 78  1  0  0  0  0
 20 79  1  0  0  0  0
 21 22  1  0  0  0  0
 21 80  1  0  0  0  0
 21 81  1  0  0  0  0
 22 23  1  0  0  0  0
 22 82  1  0  0  0  0
 22 83  1  0  0  0  0
 23 24  1  0  0  0  0
 23 84  1  0  0  0  0
 23 85  1  0  0  0  0
 24 25  1  0  0  0  0
 24 86  1  0  0  0  0
 24 87  1  0  0  0  0
 25 26  1  0  0  0  0
 25 88  1  0  0  0  0
 25 89  1  0  0  0  0
 26 27  1  0  0  0  0
 26 90  1  0  0  0  0
 26 91  1  0  0  0  0
 27 28  1  0  0  0  0
 27 92  1  0  0  0  0
 27 93  1  0  0  0  0
 28 29  1  0  0  0  0
 28 94  1  0  0  0  0
 28 95  1  0  0  0  0
 29 30  1  0  0  0  0
 29 96  1  0  0  0  0
 29 97  1  0  0  0  0
 30 31  1  0  0  0  0
 30 98  1  0  0  0  0
 30 99  1  0  0  0  0
 31 32  1  0  0  0  0
 31100  1  0  0  0  0
 31101  1  0  0  0  0
 32 33  1  0  0  0  0
 32102  1  0  0  0  0
 32103  1  0  0  0  0
 33 34  1  0  0  0  0
 34 35  2  0  0  0  0
 34 36  1  0  0  0  0
 36 37  2  0  0  0  0
 36 38  1  0  0  0  0
 37104  1  0  0  0  0
 37105  1  0  0  0  0
 38106  1  0  0  0  0
 38107  1  0  0  0  0
 38108  1  0  0  0  0
M  END
