
 OpenBabel10072616423D

 72 74  0  0  1  0  0  0  0  0999 V2000
    3.8556    0.6731    1.6542 C   0  0  0  0  0  0  0  0  0  0  0  0
    3.3076   -0.0766    0.4376 C   0  0  0  0  0  0  0  0  0  0  0  0
    1.9591   -0.7101    0.7812 C   0  0  0  0  0  0  0  0  0  0  0  0
    3.2236    0.7974   -0.8441 C   0  0  3  0  0  0  0  0  0  0  0  0
    2.3555    2.0801   -0.6821 C   0  0  0  0  0  0  0  0  0  0  0  0
    2.3963    3.0113   -1.8489 N   0  0  0  0  0  0  0  0  0  0  0  0
    1.8488    2.3651   -3.0572 C   0  0  0  0  0  0  0  0  0  0  0  0
    1.8299    3.3162   -4.2592 C   0  0  0  0  0  0  0  0  0  0  0  0
    1.1263    4.6504   -3.9759 C   0  0  3  0  0  0  0  0  0  0  0  0
    1.6250    5.2368   -2.6550 C   0  0  0  0  0  0  0  0  0  0  0  0
    1.6029    4.2109   -1.5202 C   0  0  0  0  0  0  0  0  0  0  0  0
   -0.4010    4.5093   -3.9541 C   0  0  0  0  0  0  0  0  0  0  0  0
   -0.9598    3.4588   -3.6500 O   0  0  0  0  0  0  0  0  0  0  0  0
   -1.2663    5.6956   -4.2393 C   0  0  0  0  0  0  0  0  0  0  0  0
   -2.5150    5.7619   -3.6022 C   0  0  0  0  0  0  0  0  0  0  0  0
   -3.3834    6.8314   -3.8476 C   0  0  0  0  0  0  0  0  0  0  0  0
   -3.0163    7.8326   -4.7507 C   0  0  0  0  0  0  0  0  0  0  0  0
   -1.7737    7.7676   -5.3892 C   0  0  0  0  0  0  0  0  0  0  0  0
   -0.8979    6.7038   -5.1345 C   0  0  0  0  0  0  0  0  0  0  0  0
   -4.0479    9.1657   -5.1284 Cl  0  0  0  0  0  0  0  0  0  0  0  0
   -4.8902    6.8535   -3.0042 Cl  0  0  0  0  0  0  0  0  0  0  0  0
    4.5683    1.1576   -1.3034 N   0  0  0  0  0  0  0  0  0  0  0  0
    5.3384    0.2485   -1.9964 C   0  0  0  0  0  0  0  0  0  0  0  0
    4.9591   -0.8846   -2.2540 O   0  0  0  0  0  0  0  0  0  0  0  0
    6.5659    0.7864   -2.2990 N   0  0  0  0  0  0  0  0  0  0  0  0
    7.5727    0.2274   -3.1084 C   0  0  0  0  0  0  0  0  0  0  0  0
    7.3568   -0.8596   -3.9661 C   0  0  0  0  0  0  0  0  0  0  0  0
    8.3757   -1.3111   -4.8137 C   0  0  0  0  0  0  0  0  0  0  0  0
    9.6373   -0.6982   -4.7575 C   0  0  0  0  0  0  0  0  0  0  0  0
    9.8791    0.3423   -3.8542 C   0  0  0  0  0  0  0  0  0  0  0  0
    8.8316    0.8338   -3.0739 C   0  0  0  0  0  0  0  0  0  0  0  0
   11.0757    0.9951   -3.7173 O   0  0  0  0  0  0  0  0  0  0  0  0
   12.1700    0.1099   -3.4793 C   0  0  0  0  0  0  0  0  0  0  0  0
   10.6336   -1.1388   -5.5974 O   0  0  0  0  0  0  0  0  0  0  0  0
   10.6084   -0.3847   -6.8104 C   0  0  0  0  0  0  0  0  0  0  0  0
    8.2369   -2.3222   -5.7324 O   0  0  0  0  0  0  0  0  0  0  0  0
    6.9183   -2.7797   -6.0065 C   0  0  0  0  0  0  0  0  0  0  0  0
    4.0474   -0.0243    2.4765 H   0  0  0  0  0  0  0  0  0  0  0  0
    3.1482    1.4215    2.0230 H   0  0  0  0  0  0  0  0  0  0  0  0
    4.7997    1.1755    1.4244 H   0  0  0  0  0  0  0  0  0  0  0  0
    4.0026   -0.9027    0.2380 H   0  0  0  0  0  0  0  0  0  0  0  0
    1.2158    0.0417    1.0622 H   0  0  0  0  0  0  0  0  0  0  0  0
    2.0645   -1.4030    1.6228 H   0  0  0  0  0  0  0  0  0  0  0  0
    1.5688   -1.2786   -0.0688 H   0  0  0  0  0  0  0  0  0  0  0  0
    2.7712    0.1766   -1.6278 H   0  0  0  0  0  0  0  0  0  0  0  0
    2.7306    2.6413    0.1821 H   0  0  0  0  0  0  0  0  0  0  0  0
    1.3183    1.7967   -0.4627 H   0  0  0  0  0  0  0  0  0  0  0  0
    0.8455    1.9683   -2.8655 H   0  0  0  0  0  0  0  0  0  0  0  0
    2.4752    1.5128   -3.3422 H   0  0  0  0  0  0  0  0  0  0  0  0
    1.3639    2.8096   -5.1134 H   0  0  0  0  0  0  0  0  0  0  0  0
    2.8696    3.5254   -4.5492 H   0  0  0  0  0  0  0  0  0  0  0  0
    1.4003    5.3270   -4.7905 H   0  0  0  0  0  0  0  0  0  0  0  0
    1.0237    6.1058   -2.3638 H   0  0  0  0  0  0  0  0  0  0  0  0
    2.6532    5.5970   -2.7901 H   0  0  0  0  0  0  0  0  0  0  0  0
    0.5655    3.9420   -1.2821 H   0  0  0  0  0  0  0  0  0  0  0  0
    2.0213    4.6929   -0.6285 H   0  0  0  0  0  0  0  0  0  0  0  0
   -2.8120    4.9748   -2.9106 H   0  0  0  0  0  0  0  0  0  0  0  0
   -1.4841    8.5411   -6.0979 H   0  0  0  0  0  0  0  0  0  0  0  0
    0.0427    6.6735   -5.6766 H   0  0  0  0  0  0  0  0  0  0  0  0
    4.6368    2.1046   -1.6530 H   0  0  0  0  0  0  0  0  0  0  0  0
    6.8128    1.5945   -1.7450 H   0  0  0  0  0  0  0  0  0  0  0  0
    6.3854   -1.3354   -3.9862 H   0  0  0  0  0  0  0  0  0  0  0  0
    9.0276    1.6800   -2.4208 H   0  0  0  0  0  0  0  0  0  0  0  0
   12.8765    0.6304   -2.8271 H   0  0  0  0  0  0  0  0  0  0  0  0
   12.6840   -0.1109   -4.4182 H   0  0  0  0  0  0  0  0  0  0  0  0
   11.8725   -0.8146   -2.9724 H   0  0  0  0  0  0  0  0  0  0  0  0
   11.3041   -0.8526   -7.5150 H   0  0  0  0  0  0  0  0  0  0  0  0
   10.9479    0.6414   -6.6318 H   0  0  0  0  0  0  0  0  0  0  0  0
    9.6145   -0.3829   -7.2730 H   0  0  0  0  0  0  0  0  0  0  0  0
    6.9840   -3.4977   -6.8303 H   0  0  0  0  0  0  0  0  0  0  0  0
    6.2677   -1.9598   -6.3331 H   0  0  0  0  0  0  0  0  0  0  0  0
    6.4945   -3.3019   -5.1427 H   0  0  0  0  0  0  0  0  0  0  0  0
  1  2  1  0  0  0  0
  1 38  1  0  0  0  0
  1 39  1  0  0  0  0
  1 40  1  0  0  0  0
  2  3  1  0  0  0  0
  2  4  1  0  0  0  0
  2 41  1  0  0  0  0
  3 42  1  0  0  0  0
  3 43  1  0  0  0  0
  3 44  1  0  0  0  0
  4  5  1  0  0  0  0
  4 22  1  0  0  0  0
  4 45  1  0  0  0  0
  5  6  1  0  0  0  0
  5 46  1  0  0  0  0
  5 47  1  0  0  0  0
  6  7  1  0  0  0  0
  6 11  1  0  0  0  0
  7  8  1  0  0  0  0
  7 48  1  0  0  0  0
  7 49  1  0  0  0  0
  8  9  1  0  0  0  0
  8 50  1  0  0  0  0
  8 51  1  0  0  0  0
  9 10  1  0  0  0  0
  9 12  1  0  0  0  0
  9 52  1  0  0  0  0
 10 11  1  0  0  0  0
 10 53  1  0  0  0  0
 10 54  1  0  0  0  0
 11 55  1  0  0  0  0
 11 56  1  0  0  0  0
 12 13  2  0  0  0  0
 12 14  1  0  0  0  0
 14 15  2  0  0  0  0
 14 19  1  0  0  0  0
 15 16  1  0  0  0  0
 15 57  1  0  0  0  0
 16 17  2  0  0  0  0
 16 21  1  0  0  0  0
 17 18  1  0  0  0  0
 17 20  1  0  0  0  0
 18 19  2  0  0  0  0
 18 58  1  0  0  0  0
 19 59  1  0  0  0  0
 22 23  1  0  0  0  0
 22 60  1  0  0  0  0
 23 24  2  0  0  0  0
 23 25  1  0  0  0  0
 25 26  1  0  0  0  0
 25 61  1  0  0  0  0
 26 27  2  0  0  0  0
 26 31  1  0  0  0  0
 27 28  1  0  0  0  0
 27 62  1  0  0  0  0
 28 29  2  0  0  0  0
 28 36  1  0  0  0  0
 29 30  1  0  0  0  0
 29 34  1  0  0  0  0
 30 31  2  0  0  0  0
 30 32  1  0  0  0  0
 31 63  1  0  0  0  0
 32 33  1  0  0  0  0
 33 64  1  0  0  0  0
 33 65  1  0  0  0  0
 33 66  1  0  0  0  0
 34 35  1  0  0  0  0
 35 67  1  0  0  0  0
 35 68  1  0  0  0  0
 35 69  1  0  0  0  0
 36 37  1  0  0  0  0
 37 70  1  0  0  0  0
 37 71  1  0  0  0  0
 37 72  1  0  0  0  0
M  END
