
 OpenBabel10072620053D

 57 61  0  0  1  0  0  0  0  0999 V2000
   -1.3382    0.1470    0.0681 C   0  0  0  0  0  0  0  0  0  0  0  0
    0.0488    0.2446   -0.0979 C   0  0  0  0  0  0  0  0  0  0  0  0
    0.6160   -0.1078   -1.3157 C   0  0  0  0  0  0  0  0  0  0  0  0
   -0.1747   -0.5561   -2.3657 C   0  0  0  0  0  0  0  0  0  0  0  0
   -1.5604   -0.6482   -2.1999 C   0  0  0  0  0  0  0  0  0  0  0  0
   -2.1584   -0.3070   -0.9782 C   0  0  0  0  0  0  0  0  0  0  0  0
   -3.6170   -0.3384   -0.7740 C   0  0  0  0  0  0  0  0  0  0  0  0
   -4.4720   -1.1363   -1.4328 C   0  0  0  0  0  0  0  0  0  0  0  0
   -5.9088   -1.0542   -1.1763 C   0  0  0  0  0  0  0  0  0  0  0  0
   -6.6897   -0.0329   -1.7025 C   0  0  0  0  0  0  0  0  0  0  0  0
   -6.3473    1.0420   -2.6807 C   0  0  2  0  0  0  0  0  0  0  0  0
   -7.5244    2.0130   -2.3774 C   0  0  1  0  0  0  0  0  0  0  0  0
   -8.6160    1.2525   -1.7800 O   0  0  0  0  0  0  0  0  0  0  0  0
   -8.0144    0.1120   -1.3074 C   0  0  0  0  0  0  0  0  0  0  0  0
   -8.6418   -0.7863   -0.4695 C   0  0  0  0  0  0  0  0  0  0  0  0
   -7.8789   -1.8438    0.0134 C   0  0  0  0  0  0  0  0  0  0  0  0
   -6.5234   -1.9703   -0.3126 C   0  0  0  0  0  0  0  0  0  0  0  0
   -8.4174   -2.7808    0.8473 O   0  0  0  0  0  0  0  0  0  0  0  0
   -7.0735    3.1748   -1.4934 C   0  0  0  0  0  0  0  0  0  0  0  0
   -6.4497    4.2852   -2.0959 C   0  0  0  0  0  0  0  0  0  0  0  0
   -5.9665    5.3181   -1.2998 C   0  0  0  0  0  0  0  0  0  0  0  0
   -6.1010    5.2676    0.0848 C   0  0  0  0  0  0  0  0  0  0  0  0
   -6.7190    4.1905    0.6982 C   0  0  0  0  0  0  0  0  0  0  0  0
   -7.1941    3.1404   -0.0903 C   0  0  0  0  0  0  0  0  0  0  0  0
   -5.6046    6.2776    0.8577 O   0  0  0  0  0  0  0  0  0  0  0  0
   -5.3318    6.4065   -1.8347 O   0  0  0  0  0  0  0  0  0  0  0  0
   -6.3656    0.6419   -4.1517 C   0  0  0  0  0  0  0  0  0  0  0  0
   -7.2550   -0.3181   -4.6656 C   0  0  0  0  0  0  0  0  0  0  0  0
   -7.3400   -0.5354   -6.0396 C   0  0  0  0  0  0  0  0  0  0  0  0
   -6.5451    0.1767   -6.9264 C   0  0  0  0  0  0  0  0  0  0  0  0
   -5.6564    1.1182   -6.4253 C   0  0  0  0  0  0  0  0  0  0  0  0
   -5.5600    1.3532   -5.0564 C   0  0  0  0  0  0  0  0  0  0  0  0
   -4.8630    1.8574   -7.2532 O   0  0  0  0  0  0  0  0  0  0  0  0
   -8.2193   -1.4376   -6.5624 O   0  0  0  0  0  0  0  0  0  0  0  0
    1.9589   -0.0105   -1.5287 O   0  0  0  0  0  0  0  0  0  0  0  0
   -1.7687    0.4306    1.0259 H   0  0  0  0  0  0  0  0  0  0  0  0
    0.6595    0.6010    0.7257 H   0  0  0  0  0  0  0  0  0  0  0  0
    0.2782   -0.8222   -3.3160 H   0  0  0  0  0  0  0  0  0  0  0  0
   -2.1505   -0.9879   -3.0463 H   0  0  0  0  0  0  0  0  0  0  0  0
   -3.9967    0.3563   -0.0238 H   0  0  0  0  0  0  0  0  0  0  0  0
   -4.1544   -1.8705   -2.1657 H   0  0  0  0  0  0  0  0  0  0  0  0
   -5.3769    1.4960   -2.4428 H   0  0  0  0  0  0  0  0  0  0  0  0
   -7.9352    2.4487   -3.2985 H   0  0  0  0  0  0  0  0  0  0  0  0
   -9.6752   -0.6355   -0.1860 H   0  0  0  0  0  0  0  0  0  0  0  0
   -5.9493   -2.7807    0.1303 H   0  0  0  0  0  0  0  0  0  0  0  0
   -9.3812   -2.6637    0.8649 H   0  0  0  0  0  0  0  0  0  0  0  0
   -6.3349    4.3239   -3.1766 H   0  0  0  0  0  0  0  0  0  0  0  0
   -6.8170    4.1579    1.7791 H   0  0  0  0  0  0  0  0  0  0  0  0
   -7.6460    2.2884    0.4126 H   0  0  0  0  0  0  0  0  0  0  0  0
   -5.1837    6.8869    0.2194 H   0  0  0  0  0  0  0  0  0  0  0  0
   -5.3053    6.3016   -2.8008 H   0  0  0  0  0  0  0  0  0  0  0  0
   -7.8975   -0.8813   -3.9968 H   0  0  0  0  0  0  0  0  0  0  0  0
   -6.6439   -0.0046   -7.9895 H   0  0  0  0  0  0  0  0  0  0  0  0
   -4.8626    2.1096   -4.7043 H   0  0  0  0  0  0  0  0  0  0  0  0
   -5.0240    1.5787   -8.1704 H   0  0  0  0  0  0  0  0  0  0  0  0
   -8.7549   -1.8059   -5.8392 H   0  0  0  0  0  0  0  0  0  0  0  0
    2.3739    0.3655   -0.7342 H   0  0  0  0  0  0  0  0  0  0  0  0
  1  2  2  0  0  0  0
  1  6  1  0  0  0  0
  1 36  1  0  0  0  0
  2  3  1  0  0  0  0
  2 37  1  0  0  0  0
  3  4  2  0  0  0  0
  3 35  1  0  0  0  0
  4  5  1  0  0  0  0
  4 38  1  0  0  0  0
  5  6  2  0  0  0  0
  5 39  1  0  0  0  0
  6  7  1  0  0  0  0
  7  8  2  0  0  0  0
  7 40  1  0  0  0  0
  8  9  1  0  0  0  0
  8 41  1  0  0  0  0
  9 10  2  0  0  0  0
  9 17  1  0  0  0  0
 10 11  1  0  0  0  0
 10 14  1  0  0  0  0
 11 12  1  0  0  0  0
 11 27  1  0  0  0  0
 11 42  1  1  0  0  0
 12 13  1  0  0  0  0
 12 19  1  0  0  0  0
 12 43  1  6  0  0  0
 13 14  1  0  0  0  0
 14 15  2  0  0  0  0
 15 16  1  0  0  0  0
 15 44  1  0  0  0  0
 16 17  2  0  0  0  0
 16 18  1  0  0  0  0
 17 45  1  0  0  0  0
 18 46  1  0  0  0  0
 19 20  2  0  0  0  0
 19 24  1  0  0  0  0
 20 21  1  0  0  0  0
 20 47  1  0  0  0  0
 21 22  2  0  0  0  0
 21 26  1  0  0  0  0
 22 23  1  0  0  0  0
 22 25  1  0  0  0  0
 23 24  2  0  0  0  0
 23 48  1  0  0  0  0
 24 49  1  0  0  0  0
 25 50  1  0  0  0  0
 26 51  1  0  0  0  0
 27 28  2  0  0  0  0
 27 32  1  0  0  0  0
 28 29  1  0  0  0  0
 28 52  1  0  0  0  0
 29 30  2  0  0  0  0
 29 34  1  0  0  0  0
 30 31  1  0  0  0  0
 30 53  1  0  0  0  0
 31 32  2  0  0  0  0
 31 33  1  0  0  0  0
 32 54  1  0  0  0  0
 33 55  1  0  0  0  0
 34 56  1  0  0  0  0
 35 57  1  0  0  0  0
M  END
