
 OpenBabel10072620073D

 42 43  0  0  0  0  0  0  0  0999 V2000
    2.5962   -0.0748   -4.2860 C   0  0  0  0  0  0  0  0  0  0  0  0
    3.0506   -1.4313   -3.7606 C   0  0  0  0  0  0  0  0  0  0  0  0
    2.5265   -1.6841   -2.3413 C   0  0  0  0  0  0  0  0  0  0  0  0
    2.9136   -0.6048   -1.4098 N   0  0  0  0  0  0  0  0  0  0  0  0
    2.4267    0.6970   -1.9021 C   0  0  0  0  0  0  0  0  0  0  0  0
    2.9674    1.0190   -3.2948 C   0  0  0  0  0  0  0  0  0  0  0  0
    2.3762   -0.8454   -0.0459 C   0  0  0  0  0  0  0  0  0  0  0  0
    3.0626   -2.0098    0.6921 C   0  0  0  0  0  0  0  0  0  0  0  0
    4.5201   -1.8696    0.6887 N   0  0  0  0  0  0  0  0  0  0  0  0
    5.4210   -2.7791    1.2210 C   0  0  0  0  0  0  0  0  0  0  0  0
    4.9692   -4.1887    2.0044 S   0  0  0  0  0  0  0  0  0  0  0  0
    6.7154   -2.2891    1.0770 N   0  0  0  0  0  0  0  0  0  0  0  0
    7.9533   -2.9767    1.1493 C   0  0  0  0  0  0  0  0  0  0  0  0
    8.0634   -4.2996    0.6983 C   0  0  0  0  0  0  0  0  0  0  0  0
    9.2871   -4.9718    0.7167 C   0  0  0  0  0  0  0  0  0  0  0  0
   10.4293   -4.3269    1.1644 C   0  0  0  0  0  0  0  0  0  0  0  0
   10.3480   -3.0042    1.5929 C   0  0  0  0  0  0  0  0  0  0  0  0
    9.1157   -2.3127    1.5901 C   0  0  0  0  0  0  0  0  0  0  0  0
    9.0733   -0.9199    2.1596 C   0  0  0  0  0  0  0  0  0  0  0  0
    8.2664   -0.0794    1.4470 F   0  0  0  0  0  0  0  0  0  0  0  0
    8.5969   -0.8942    3.4359 F   0  0  0  0  0  0  0  0  0  0  0  0
   10.2878   -0.3003    2.2043 F   0  0  0  0  0  0  0  0  0  0  0  0
    1.5091   -0.0828   -4.4337 H   0  0  0  0  0  0  0  0  0  0  0  0
    3.0491    0.1310   -5.2617 H   0  0  0  0  0  0  0  0  0  0  0  0
    4.1478   -1.4751   -3.7636 H   0  0  0  0  0  0  0  0  0  0  0  0
    2.6945   -2.2218   -4.4324 H   0  0  0  0  0  0  0  0  0  0  0  0
    2.9379   -2.6430   -2.0053 H   0  0  0  0  0  0  0  0  0  0  0  0
    1.4332   -1.7865   -2.3759 H   0  0  0  0  0  0  0  0  0  0  0  0
    2.7512    1.4947   -1.2234 H   0  0  0  0  0  0  0  0  0  0  0  0
    1.3292    0.7121   -1.9255 H   0  0  0  0  0  0  0  0  0  0  0  0
    4.0595    1.1279   -3.2572 H   0  0  0  0  0  0  0  0  0  0  0  0
    2.5571    1.9779   -3.6320 H   0  0  0  0  0  0  0  0  0  0  0  0
    1.2926   -1.0165   -0.0708 H   0  0  0  0  0  0  0  0  0  0  0  0
    2.5380    0.0564    0.5613 H   0  0  0  0  0  0  0  0  0  0  0  0
    2.7973   -2.9674    0.2330 H   0  0  0  0  0  0  0  0  0  0  0  0
    2.7298   -2.0305    1.7370 H   0  0  0  0  0  0  0  0  0  0  0  0
    4.8683   -1.3071   -0.0818 H   0  0  0  0  0  0  0  0  0  0  0  0
    6.7507   -1.2742    1.1356 H   0  0  0  0  0  0  0  0  0  0  0  0
    7.2046   -4.8250    0.2898 H   0  0  0  0  0  0  0  0  0  0  0  0
    9.3400   -6.0028    0.3724 H   0  0  0  0  0  0  0  0  0  0  0  0
   11.3810   -4.8539    1.1914 H   0  0  0  0  0  0  0  0  0  0  0  0
   11.2519   -2.5104    1.9437 H   0  0  0  0  0  0  0  0  0  0  0  0
  1  2  1  0  0  0  0
  1  6  1  0  0  0  0
  1 23  1  0  0  0  0
  1 24  1  0  0  0  0
  2  3  1  0  0  0  0
  2 25  1  0  0  0  0
  2 26  1  0  0  0  0
  3  4  1  0  0  0  0
  3 27  1  0  0  0  0
  3 28  1  0  0  0  0
  4  5  1  0  0  0  0
  4  7  1  0  0  0  0
  5  6  1  0  0  0  0
  5 29  1  0  0  0  0
  5 30  1  0  0  0  0
  6 31  1  0  0  0  0
  6 32  1  0  0  0  0
  7  8  1  0  0  0  0
  7 33  1  0  0  0  0
  7 34  1  0  0  0  0
  8  9  1  0  0  0  0
  8 35  1  0  0  0  0
  8 36  1  0  0  0  0
  9 10  1  0  0  0  0
  9 37  1  0  0  0  0
 10 11  2  0  0  0  0
 10 12  1  0  0  0  0
 12 13  1  0  0  0  0
 12 38  1  0  0  0  0
 13 14  2  0  0  0  0
 13 18  1  0  0  0  0
 14 15  1  0  0  0  0
 14 39  1  0  0  0  0
 15 16  2  0  0  0  0
 15 40  1  0  0  0  0
 16 17  1  0  0  0  0
 16 41  1  0  0  0  0
 17 18  2  0  0  0  0
 17 42  1  0  0  0  0
 18 19  1  0  0  0  0
 19 20  1  0  0  0  0
 19 21  1  0  0  0  0
 19 22  1  0  0  0  0
M  END
