
 OpenBabel10072620233D

 56 58  0  0  0  0  0  0  0  0999 V2000
    5.4880    0.6068    0.0545 C   0  0  0  0  0  0  0  0  0  0  0  0
    4.1312    0.4672    0.7259 C   0  0  0  0  0  0  0  0  0  0  0  0
    4.0160   -0.8902    1.1698 O   0  0  0  0  0  0  0  0  0  0  0  0
    3.5288   -1.7666    0.2605 C   0  0  0  0  0  0  0  0  0  0  0  0
    2.8543   -1.4837   -0.7194 O   0  0  0  0  0  0  0  0  0  0  0  0
    4.0307   -3.1373    0.5612 C   0  0  0  0  0  0  0  0  0  0  0  0
    3.6871   -4.1759   -0.3115 C   0  0  0  0  0  0  0  0  0  0  0  0
    4.2391   -5.4543   -0.1475 C   0  0  0  0  0  0  0  0  0  0  0  0
    5.1547   -5.7174    0.8779 C   0  0  0  0  0  0  0  0  0  0  0  0
    5.4773   -4.6724    1.7508 C   0  0  0  0  0  0  0  0  0  0  0  0
    4.9189   -3.3975    1.6085 C   0  0  0  0  0  0  0  0  0  0  0  0
    5.6675   -6.9964    1.1709 N   0  0  0  0  0  0  0  0  0  0  0  0
    5.8703   -7.8596    0.2253 C   0  0  0  0  0  0  0  0  0  0  0  0
    6.2975   -9.2532    0.5186 C   0  0  0  0  0  0  0  0  0  0  0  0
    6.5941   -9.6829    1.8177 C   0  0  0  0  0  0  0  0  0  0  0  0
    6.9465  -11.0209    2.0634 C   0  0  0  0  0  0  0  0  0  0  0  0
    7.0037  -11.9358    1.0080 C   0  0  0  0  0  0  0  0  0  0  0  0
    6.6972  -11.5102   -0.2858 C   0  0  0  0  0  0  0  0  0  0  0  0
    6.3591  -10.1711   -0.5353 C   0  0  0  0  0  0  0  0  0  0  0  0
    7.4393  -13.3409    1.2156 C   0  0  0  0  0  0  0  0  0  0  0  0
    7.8636  -13.7559    2.3652 N   0  0  0  0  0  0  0  0  0  0  0  0
    8.3868  -15.0541    2.5309 C   0  0  0  0  0  0  0  0  0  0  0  0
    9.1077  -15.7454    1.5509 C   0  0  0  0  0  0  0  0  0  0  0  0
    9.6998  -16.9870    1.8234 C   0  0  0  0  0  0  0  0  0  0  0  0
    9.6004  -17.5508    3.0997 C   0  0  0  0  0  0  0  0  0  0  0  0
    8.9126  -16.8531    4.0942 C   0  0  0  0  0  0  0  0  0  0  0  0
    8.3024  -15.6275    3.8071 C   0  0  0  0  0  0  0  0  0  0  0  0
   10.1441  -18.9214    3.3170 C   0  0  0  0  0  0  0  0  0  0  0  0
   10.6560  -19.6026    2.4440 O   0  0  0  0  0  0  0  0  0  0  0  0
    9.9044  -19.3008    4.5956 O   0  0  0  0  0  0  0  0  0  0  0  0
    9.8880  -20.7096    4.8566 C   0  0  0  0  0  0  0  0  0  0  0  0
    8.4712  -21.2000    4.6122 C   0  0  0  0  0  0  0  0  0  0  0  0
    5.6608    1.6269   -0.2979 H   0  0  0  0  0  0  0  0  0  0  0  0
    5.5756   -0.0851   -0.7918 H   0  0  0  0  0  0  0  0  0  0  0  0
    6.2837    0.3317    0.7574 H   0  0  0  0  0  0  0  0  0  0  0  0
    3.3141    0.7652    0.0604 H   0  0  0  0  0  0  0  0  0  0  0  0
    4.0824    1.1040    1.6137 H   0  0  0  0  0  0  0  0  0  0  0  0
    2.9920   -3.9880   -1.1279 H   0  0  0  0  0  0  0  0  0  0  0  0
    3.9208   -6.2515   -0.8139 H   0  0  0  0  0  0  0  0  0  0  0  0
    6.1667   -4.8621    2.5658 H   0  0  0  0  0  0  0  0  0  0  0  0
    5.2101   -2.6217    2.3098 H   0  0  0  0  0  0  0  0  0  0  0  0
    5.7025   -7.6000   -0.8363 H   0  0  0  0  0  0  0  0  0  0  0  0
    6.5647   -8.9849    2.6506 H   0  0  0  0  0  0  0  0  0  0  0  0
    7.1850  -11.3431    3.0744 H   0  0  0  0  0  0  0  0  0  0  0  0
    6.7232  -12.2123   -1.1147 H   0  0  0  0  0  0  0  0  0  0  0  0
    6.1468   -9.8602   -1.5550 H   0  0  0  0  0  0  0  0  0  0  0  0
    7.4053  -13.9969    0.3252 H   0  0  0  0  0  0  0  0  0  0  0  0
    9.2437  -15.3195    0.5611 H   0  0  0  0  0  0  0  0  0  0  0  0
   10.2259  -17.5187    1.0339 H   0  0  0  0  0  0  0  0  0  0  0  0
    8.8190  -17.2559    5.0966 H   0  0  0  0  0  0  0  0  0  0  0  0
    7.7698  -15.1028    4.5948 H   0  0  0  0  0  0  0  0  0  0  0  0
   10.1536  -20.8416    5.9095 H   0  0  0  0  0  0  0  0  0  0  0  0
   10.6222  -21.2578    4.2575 H   0  0  0  0  0  0  0  0  0  0  0  0
    7.7711  -20.6630    5.2632 H   0  0  0  0  0  0  0  0  0  0  0  0
    8.3776  -22.2728    4.7988 H   0  0  0  0  0  0  0  0  0  0  0  0
    8.1602  -20.9842    3.5838 H   0  0  0  0  0  0  0  0  0  0  0  0
  1  2  1  0  0  0  0
  1 33  1  0  0  0  0
  1 34  1  0  0  0  0
  1 35  1  0  0  0  0
  2  3  1  0  0  0  0
  2 36  1  0  0  0  0
  2 37  1  0  0  0  0
  3  4  1  0  0  0  0
  4  5  2  0  0  0  0
  4  6  1  0  0  0  0
  6  7  2  0  0  0  0
  6 11  1  0  0  0  0
  7  8  1  0  0  0  0
  7 38  1  0  0  0  0
  8  9  2  0  0  0  0
  8 39  1  0  0  0  0
  9 10  1  0  0  0  0
  9 12  1  0  0  0  0
 10 11  2  0  0  0  0
 10 40  1  0  0  0  0
 11 41  1  0  0  0  0
 12 13  2  3  0  0  0
 13 14  1  0  0  0  0
 13 42  1  0  0  0  0
 14 15  2  0  0  0  0
 14 19  1  0  0  0  0
 15 16  1  0  0  0  0
 15 43  1  0  0  0  0
 16 17  2  0  0  0  0
 16 44  1  0  0  0  0
 17 18  1  0  0  0  0
 17 20  1  0  0  0  0
 18 19  2  0  0  0  0
 18 45  1  0  0  0  0
 19 46  1  0  0  0  0
 20 21  2  3  0  0  0
 20 47  1  0  0  0  0
 21 22  1  0  0  0  0
 22 23  2  0  0  0  0
 22 27  1  0  0  0  0
 23 24  1  0  0  0  0
 23 48  1  0  0  0  0
 24 25  2  0  0  0  0
 24 49  1  0  0  0  0
 25 26  1  0  0  0  0
 25 28  1  0  0  0  0
 26 27  2  0  0  0  0
 26 50  1  0  0  0  0
 27 51  1  0  0  0  0
 28 29  2  0  0  0  0
 28 30  1  0  0  0  0
 30 31  1  0  0  0  0
 31 32  1  0  0  0  0
 31 52  1  0  0  0  0
 31 53  1  0  0  0  0
 32 54  1  0  0  0  0
 32 55  1  0  0  0  0
 32 56  1  0  0  0  0
M  END
