
 OpenBabel10072620023D

108126  0  0  1  0  0  0  0  0999 V2000
   -1.7135    2.8824   -0.0174 C   0  0  0  0  0  0  0  0  0  0  0  0
   -2.0366    1.4452   -0.3034 N   0  0  0  0  0  0  0  0  0  0  0  0
   -0.8704    0.8082    0.0495 C   0  0  3  0  0  0  0  0  0  0  0  0
   -0.7022   -0.6240   -0.2896 C   0  0  3  0  0  0  0  0  0  0  0  0
   -2.4060   -1.4724    0.0710 N   0  0  0  0  0  0  0  0  0  0  0  0
   -3.3950    0.1741   -0.7783 C   0  0  0  0  0  0  0  0  0  0  0  0
   -3.6305    0.3427   -2.0967 O   0  0  0  0  0  0  0  0  0  0  0  0
   -1.9413   -2.9703   -0.1856 C   0  0  0  0  0  0  0  0  0  0  0  0
   -0.9948   -3.6404    0.7874 N   0  0  0  0  0  0  0  0  0  0  0  0
    0.3434   -3.3138    0.7666 C   0  0  3  0  0  0  0  0  0  0  0  0
   -0.2733   -2.5073    2.0351 C   0  0  3  0  0  0  0  0  0  0  0  0
    0.0213   -3.0721    3.1745 N   0  0  0  0  0  0  0  0  0  0  0  0
   -1.1798   -3.9371    2.4287 C   0  0  0  0  0  0  0  0  0  0  0  0
   -2.2973   -3.9894    2.9203 O   0  0  0  0  0  0  0  0  0  0  0  0
   -0.1856   -2.2609    4.4815 C   0  0  0  0  0  0  0  0  0  0  0  0
    0.4812   -0.9339    4.6713 N   0  0  0  0  0  0  0  0  0  0  0  0
   -0.3086    0.1476    4.5547 C   0  0  3  0  0  0  0  0  0  0  0  0
    0.3726    1.5692    4.6794 C   0  0  3  0  0  0  0  0  0  0  0  0
    0.0599    1.2402    5.9763 N   0  0  0  0  0  0  0  0  0  0  0  0
    1.1177   -0.2885    5.7382 C   0  0  0  0  0  0  0  0  0  0  0  0
    2.3329   -0.5589    5.5643 O   0  0  0  0  0  0  0  0  0  0  0  0
   -1.3782    2.1445    5.6406 C   0  0  0  0  0  0  0  0  0  0  0  0
   -2.4610    1.6136    4.0235 N   0  0  0  0  0  0  0  0  0  0  0  0
   -3.6453    2.2158    3.1565 C   0  0  3  0  0  0  0  0  0  0  0  0
   -4.1710    0.8315    1.6034 C   0  0  3  0  0  0  0  0  0  0  0  0
   -2.8164    0.0044    0.8238 N   0  0  0  0  0  0  0  0  0  0  0  0
   -2.7335    0.1766    2.8813 C   0  0  0  0  0  0  0  0  0  0  0  0
   -2.4788   -0.5778    3.8507 O   0  0  0  0  0  0  0  0  0  0  0  0
   -2.1918   -0.6989   -1.3406 C   0  0  0  0  0  0  0  0  0  0  0  0
   -1.6014    0.2463   -2.6292 N   0  0  0  0  0  0  0  0  0  0  0  0
   -1.8796    1.5304   -2.1863 C   0  0  3  0  0  0  0  0  0  0  0  0
   -1.2753    2.2554   -3.1244 C   0  0  3  0  0  0  0  0  0  0  0  0
    0.6152    1.8707   -2.6660 N   0  0  0  0  0  0  0  0  0  0  0  0
   -0.0213    0.2508   -3.3457 C   0  0  0  0  0  0  0  0  0  0  0  0
   -0.4334   -0.2789   -4.4289 O   0  0  0  0  0  0  0  0  0  0  0  0
    2.0621    3.3845   -2.5819 C   0  0  0  0  0  0  0  0  0  0  0  0
    0.8460    4.8700   -2.1520 N   0  0  0  0  0  0  0  0  0  0  0  0
    0.1523    5.9245   -1.8884 C   0  0  3  0  0  0  0  0  0  0  0  0
    0.0682    4.5261   -0.5841 C   0  0  3  0  0  0  0  0  0  0  0  0
   -1.0493    3.8127   -0.7987 N   0  0  0  0  0  0  0  0  0  0  0  0
   -0.8397    3.9906   -2.1105 C   0  0  0  0  0  0  0  0  0  0  0  0
   -1.3198    3.9243   -3.5326 O   0  0  0  0  0  0  0  0  0  0  0  0
    0.7154    3.3218   -1.2735 N   0  0  0  0  0  0  0  0  0  0  0  0
    1.5424    2.5460    0.1123 C   0  0  0  0  0  0  0  0  0  0  0  0
    0.9766    1.2619    0.0832 N   0  0  0  0  0  0  0  0  0  0  0  0
    1.8593    0.3731   -0.4896 C   0  0  0  0  0  0  0  0  0  0  0  0
    2.9285    0.8136   -0.8494 O   0  0  0  0  0  0  0  0  0  0  0  0
    1.1680   -0.8295   -0.7743 N   0  0  0  0  0  0  0  0  0  0  0  0
    1.9519   -2.0493   -0.7681 C   0  0  0  0  0  0  0  0  0  0  0  0
    1.4060   -2.4554    0.4357 N   0  0  0  0  0  0  0  0  0  0  0  0
    1.4228   -1.4814    1.4151 C   0  0  0  0  0  0  0  0  0  0  0  0
    2.1517   -0.6487    1.8764 O   0  0  0  0  0  0  0  0  0  0  0  0
    0.1865   -1.3676    1.7514 N   0  0  0  0  0  0  0  0  0  0  0  0
   -0.6247   -0.4243    2.0455 C   0  0  0  0  0  0  0  0  0  0  0  0
   -0.4695    0.5890    2.8562 N   0  0  0  0  0  0  0  0  0  0  0  0
   -1.0843    1.7160    2.5218 C   0  0  0  0  0  0  0  0  0  0  0  0
   -2.1769    1.7762    1.9568 O   0  0  0  0  0  0  0  0  0  0  0  0
   -0.5990    2.6890    3.3010 N   0  0  0  0  0  0  0  0  0  0  0  0
   -1.9130    3.7126    2.5286 C   0  0  0  0  0  0  0  0  0  0  0  0
   -3.4815    2.9621    1.5606 N   0  0  0  0  0  0  0  0  0  0  0  0
   -4.2328    1.7869    0.0155 C   0  0  0  0  0  0  0  0  0  0  0  0
   -5.0036    1.1539   -1.3047 O   0  0  0  0  0  0  0  0  0  0  0  0
   -5.2552    1.2769    0.5894 N   0  0  0  0  0  0  0  0  0  0  0  0
   -5.2443    2.5352   -0.3803 C   0  0  0  0  0  0  0  0  0  0  0  0
   -3.6462    2.5113   -1.6032 N   0  0  0  0  0  0  0  0  0  0  0  0
   -3.7343    3.8376   -1.5850 C   0  0  0  0  0  0  0  0  0  0  0  0
   -4.2253    4.5728   -0.7192 O   0  0  0  0  0  0  0  0  0  0  0  0
   -2.6897    3.7240   -2.5197 N   0  0  0  0  0  0  0  0  0  0  0  0
   -2.2146    5.3306   -2.4405 C   0  0  0  0  0  0  0  0  0  0  0  0
   -0.4589    5.4342   -3.1019 N   0  0  0  0  0  0  0  0  0  0  0  0
    0.4543    3.6726   -3.2980 C   0  0  0  0  0  0  0  0  0  0  0  0
    1.0151    3.0784   -4.2787 O   0  0  0  0  0  0  0  0  0  0  0  0
   -0.9131    2.6663    0.6650 H   0  0  0  0  0  0  0  0  0  0  0  0
   -2.4029    3.6000    0.3223 H   0  0  0  0  0  0  0  0  0  0  0  0
   -1.2729    0.9048    0.9453 H   0  0  0  0  0  0  0  0  0  0  0  0
   -0.7797   -0.0113   -1.1659 H   0  0  0  0  0  0  0  0  0  0  0  0
   -1.1868   -2.7429   -0.9577 H   0  0  0  0  0  0  0  0  0  0  0  0
   -2.5204   -3.6746   -0.7674 H   0  0  0  0  0  0  0  0  0  0  0  0
    0.6872   -4.1720    0.1540 H   0  0  0  0  0  0  0  0  0  0  0  0
   -1.3832   -2.1535    2.4015 H   0  0  0  0  0  0  0  0  0  0  0  0
    0.0219   -3.0073    5.2264 H   0  0  0  0  0  0  0  0  0  0  0  0
   -1.2269   -2.0056    4.6436 H   0  0  0  0  0  0  0  0  0  0  0  0
   -1.0042   -0.2758    5.6812 H   0  0  0  0  0  0  0  0  0  0  0  0
    1.3394    1.8725    5.3188 H   0  0  0  0  0  0  0  0  0  0  0  0
   -0.4020    3.1013    5.7199 H   0  0  0  0  0  0  0  0  0  0  0  0
   -1.6554    2.9656    6.5003 H   0  0  0  0  0  0  0  0  0  0  0  0
   -2.8360    3.2414    4.0103 H   0  0  0  0  0  0  0  0  0  0  0  0
   -4.7132   -0.2840    1.8909 H   0  0  0  0  0  0  0  0  0  0  0  0
   -2.5937   -1.7273   -1.8301 H   0  0  0  0  0  0  0  0  0  0  0  0
   -1.3010   -1.1769   -1.7469 H   0  0  0  0  0  0  0  0  0  0  0  0
   -0.6252    1.3700   -1.6435 H   0  0  0  0  0  0  0  0  0  0  0  0
   -0.7711    1.9987   -4.2168 H   0  0  0  0  0  0  0  0  0  0  0  0
    2.2724    3.9924   -3.6112 H   0  0  0  0  0  0  0  0  0  0  0  0
    2.4201    4.2158   -1.8639 H   0  0  0  0  0  0  0  0  0  0  0  0
    0.1083    6.5872   -2.8257 H   0  0  0  0  0  0  0  0  0  0  0  0
    0.3175    4.5042    0.5406 H   0  0  0  0  0  0  0  0  0  0  0  0
    1.3461    2.6325    1.2424 H   0  0  0  0  0  0  0  0  0  0  0  0
    2.6359    2.8715    0.3387 H   0  0  0  0  0  0  0  0  0  0  0  0
    2.9281   -2.5246   -0.4466 H   0  0  0  0  0  0  0  0  0  0  0  0
    2.1762   -2.3121   -1.8219 H   0  0  0  0  0  0  0  0  0  0  0  0
   -1.6053   -0.7931    1.7214 H   0  0  0  0  0  0  0  0  0  0  0  0
   -0.0626   -0.0772    1.2728 H   0  0  0  0  0  0  0  0  0  0  0  0
   -0.9723    4.0807    2.1750 H   0  0  0  0  0  0  0  0  0  0  0  0
   -2.3766    4.4565    3.2145 H   0  0  0  0  0  0  0  0  0  0  0  0
   -5.4604    3.2201    0.3689 H   0  0  0  0  0  0  0  0  0  0  0  0
   -6.2070    2.4896   -1.0306 H   0  0  0  0  0  0  0  0  0  0  0  0
   -3.0373    5.5042   -3.0680 H   0  0  0  0  0  0  0  0  0  0  0  0
   -2.2059    5.5141   -1.2803 H   0  0  0  0  0  0  0  0  0  0  0  0
  1  2  1  0  0  0  0
  1 40  1  0  0  0  0
  1 73  1  0  0  0  0
  1 74  1  0  0  0  0
  2  3  1  0  0  0  0
  2  6  1  0  0  0  0
  3  4  1  0  0  0  0
  3 45  1  0  0  0  0
  3 75  1  0  0  0  0
  4  5  1  0  0  0  0
  4 48  1  0  0  0  0
  4 76  1  0  0  0  0
  5  6  1  0  0  0  0
  5  8  1  0  0  0  0
  6  7  2  0  0  0  0
  8  9  1  0  0  0  0
  8 77  1  0  0  0  0
  8 78  1  0  0  0  0
  9 10  1  0  0  0  0
  9 13  1  0  0  0  0
 10 11  1  0  0  0  0
 10 50  1  0  0  0  0
 10 79  1  0  0  0  0
 11 12  1  0  0  0  0
 11 53  1  0  0  0  0
 11 80  1  0  0  0  0
 12 13  1  0  0  0  0
 12 15  1  0  0  0  0
 13 14  2  0  0  0  0
 15 16  1  0  0  0  0
 15 81  1  0  0  0  0
 15 82  1  0  0  0  0
 16 17  1  0  0  0  0
 16 20  1  0  0  0  0
 17 18  1  0  0  0  0
 17 55  1  0  0  0  0
 17 83  1  0  0  0  0
 18 19  1  0  0  0  0
 18 58  1  0  0  0  0
 18 84  1  0  0  0  0
 19 20  1  0  0  0  0
 19 22  1  0  0  0  0
 20 21  2  0  0  0  0
 22 23  1  0  0  0  0
 22 85  1  0  0  0  0
 22 86  1  0  0  0  0
 23 24  1  0  0  0  0
 23 27  1  0  0  0  0
 24 25  1  0  0  0  0
 24 60  1  0  0  0  0
 24 87  1  0  0  0  0
 25 26  1  0  0  0  0
 25 63  1  0  0  0  0
 25 88  1  0  0  0  0
 26 27  1  0  0  0  0
 26 29  1  0  0  0  0
 27 28  2  0  0  0  0
 29 30  1  0  0  0  0
 29 89  1  0  0  0  0
 29 90  1  0  0  0  0
 30 31  1  0  0  0  0
 30 34  1  0  0  0  0
 31 32  1  0  0  0  0
 31 65  1  0  0  0  0
 31 91  1  0  0  0  0
 32 33  1  0  0  0  0
 32 68  1  0  0  0  0
 32 92  1  0  0  0  0
 33 34  1  0  0  0  0
 33 36  1  0  0  0  0
 34 35  2  0  0  0  0
 36 37  1  0  0  0  0
 36 93  1  0  0  0  0
 36 94  1  0  0  0  0
 37 38  1  0  0  0  0
 37 41  1  0  0  0  0
 38 39  1  0  0  0  0
 38 70  1  0  0  0  0
 38 95  1  0  0  0  0
 39 40  1  0  0  0  0
 39 43  1  0  0  0  0
 39 96  1  0  0  0  0
 40 41  1  0  0  0  0
 41 42  2  0  0  0  0
 43 44  1  0  0  0  0
 43 71  1  0  0  0  0
 44 45  1  0  0  0  0
 44 97  1  0  0  0  0
 44 98  1  0  0  0  0
 45 46  1  0  0  0  0
 46 47  2  0  0  0  0
 46 48  1  0  0  0  0
 48 49  1  0  0  0  0
 49 50  1  0  0  0  0
 49 99  1  0  0  0  0
 49100  1  0  0  0  0
 50 51  1  0  0  0  0
 51 52  2  0  0  0  0
 51 53  1  0  0  0  0
 53 54  1  0  0  0  0
 54 55  1  0  0  0  0
 54101  1  0  0  0  0
 54102  1  0  0  0  0
 55 56  1  0  0  0  0
 56 57  2  0  0  0  0
 56 58  1  0  0  0  0
 58 59  1  0  0  0  0
 59 60  1  0  0  0  0
 59103  1  0  0  0  0
 59104  1  0  0  0  0
 60 61  1  0  0  0  0
 61 62  2  0  0  0  0
 61 63  1  0  0  0  0
 63 64  1  0  0  0  0
 64 65  1  0  0  0  0
 64105  1  0  0  0  0
 64106  1  0  0  0  0
 65 66  1  0  0  0  0
 66 67  2  0  0  0  0
 66 68  1  0  0  0  0
 68 69  1  0  0  0  0
 69 70  1  0  0  0  0
 69107  1  0  0  0  0
 69108  1  0  0  0  0
 70 71  1  0  0  0  0
 71 72  2  0  0  0  0
M  END
