
 OpenBabel10072619433D

 40 42  0  0  0  0  0  0  0  0999 V2000
   -1.1018   -2.1585   -0.0763 C   0  0  0  0  0  0  0  0  0  0  0  0
   -1.4749   -1.5896    1.1361 C   0  0  0  0  0  0  0  0  0  0  0  0
   -1.1662   -0.2565    1.3930 C   0  0  0  0  0  0  0  0  0  0  0  0
   -0.4812    0.5414    0.4665 C   0  0  0  0  0  0  0  0  0  0  0  0
   -0.1051   -0.0500   -0.7467 C   0  0  0  0  0  0  0  0  0  0  0  0
   -0.4159   -1.3889   -1.0158 C   0  0  0  0  0  0  0  0  0  0  0  0
    0.7818    0.8104   -1.9516 Cl  0  0  0  0  0  0  0  0  0  0  0  0
   -0.2049    1.9778    0.8129 C   0  0  0  0  0  0  0  0  0  0  0  0
   -1.3455    2.8374    0.5101 N   0  0  0  0  0  0  0  0  0  0  0  0
   -2.3911    3.1180    1.3423 C   0  0  0  0  0  0  0  0  0  0  0  0
   -3.1407    4.0650    0.6937 C   0  0  0  0  0  0  0  0  0  0  0  0
   -2.4785    4.2980   -0.5391 C   0  0  0  0  0  0  0  0  0  0  0  0
   -1.3872    3.5274   -0.6545 N   0  0  0  0  0  0  0  0  0  0  0  0
   -2.8938    5.2112   -1.4856 N   0  0  0  0  0  0  0  0  0  0  0  0
   -2.3326    5.5326   -2.6874 C   0  0  0  0  0  0  0  0  0  0  0  0
   -2.8691    6.4235   -3.3446 O   0  0  0  0  0  0  0  0  0  0  0  0
   -1.2278    4.8174   -3.0574 N   0  0  0  0  0  0  0  0  0  0  0  0
   -0.4545    4.9552   -4.2231 C   0  0  0  0  0  0  0  0  0  0  0  0
   -0.6545    5.9588   -5.1768 C   0  0  0  0  0  0  0  0  0  0  0  0
    0.1523    6.0332   -6.3177 C   0  0  0  0  0  0  0  0  0  0  0  0
    1.1674    5.0896   -6.5064 C   0  0  0  0  0  0  0  0  0  0  0  0
    1.3870    4.0851   -5.5565 C   0  0  0  0  0  0  0  0  0  0  0  0
    0.5769    4.0272   -4.4179 C   0  0  0  0  0  0  0  0  0  0  0  0
    2.0052    5.1512   -7.7092 N   0  3  0  0  0  0  0  0  0  0  0  0
    1.8392    6.1056   -8.4836 O   0  0  0  0  0  0  0  0  0  0  0  0
    2.8270    4.2405   -7.8849 O   0  5  0  0  0  0  0  0  0  0  0  0
   -4.5553    4.8149    1.2491 Cl  0  0  0  0  0  0  0  0  0  0  0  0
   -1.5312    0.2671    2.5722 F   0  0  0  0  0  0  0  0  0  0  0  0
   -1.3403   -3.1970   -0.2922 H   0  0  0  0  0  0  0  0  0  0  0  0
   -2.0026   -2.1750    1.8840 H   0  0  0  0  0  0  0  0  0  0  0  0
   -0.1218   -1.8417   -1.9608 H   0  0  0  0  0  0  0  0  0  0  0  0
    0.6672    2.3846    0.2908 H   0  0  0  0  0  0  0  0  0  0  0  0
    0.0108    2.0856    1.8831 H   0  0  0  0  0  0  0  0  0  0  0  0
   -2.5082    2.6450    2.3075 H   0  0  0  0  0  0  0  0  0  0  0  0
   -3.7184    5.7546   -1.2678 H   0  0  0  0  0  0  0  0  0  0  0  0
   -0.9748    4.0797   -2.4010 H   0  0  0  0  0  0  0  0  0  0  0  0
   -1.4329    6.7079   -5.0600 H   0  0  0  0  0  0  0  0  0  0  0  0
   -0.0306    6.8273   -7.0389 H   0  0  0  0  0  0  0  0  0  0  0  0
    2.1731    3.3436   -5.6855 H   0  0  0  0  0  0  0  0  0  0  0  0
    0.7540    3.2414   -3.6883 H   0  0  0  0  0  0  0  0  0  0  0  0
  1  2  2  0  0  0  0
  1  6  1  0  0  0  0
  1 29  1  0  0  0  0
  2  3  1  0  0  0  0
  2 30  1  0  0  0  0
  3  4  2  0  0  0  0
  3 28  1  0  0  0  0
  4  5  1  0  0  0  0
  4  8  1  0  0  0  0
  5  6  2  0  0  0  0
  5  7  1  0  0  0  0
  6 31  1  0  0  0  0
  8  9  1  0  0  0  0
  8 32  1  0  0  0  0
  8 33  1  0  0  0  0
  9 10  1  0  0  0  0
  9 13  1  0  0  0  0
 10 11  2  0  0  0  0
 10 34  1  0  0  0  0
 11 12  1  0  0  0  0
 11 27  1  0  0  0  0
 12 13  2  0  0  0  0
 12 14  1  0  0  0  0
 14 15  1  0  0  0  0
 14 35  1  0  0  0  0
 15 16  2  0  0  0  0
 15 17  1  0  0  0  0
 17 18  1  0  0  0  0
 17 36  1  0  0  0  0
 18 19  2  0  0  0  0
 18 23  1  0  0  0  0
 19 20  1  0  0  0  0
 19 37  1  0  0  0  0
 20 21  2  0  0  0  0
 20 38  1  0  0  0  0
 21 22  1  0  0  0  0
 21 24  1  0  0  0  0
 22 23  2  0  0  0  0
 22 39  1  0  0  0  0
 23 40  1  0  0  0  0
 24 25  2  0  0  0  0
 24 26  1  0  0  0  0
M  CHG  2  24   1  26  -1
M  END
