
 OpenBabel10072620013D

 34 35  0  0  0  0  0  0  0  0999 V2000
    2.3511    0.6241    1.2805 C   0  0  0  0  0  0  0  0  0  0  0  0
    1.1081    0.1593    0.5684 C   0  0  0  0  0  0  0  0  0  0  0  0
    0.1607    1.0274   -0.0178 C   0  0  0  0  0  0  0  0  0  0  0  0
   -1.0416    0.4949   -0.5452 C   0  0  0  0  0  0  0  0  0  0  0  0
   -1.2383   -0.8958   -0.5546 C   0  0  0  0  0  0  0  0  0  0  0  0
   -0.2740   -1.7532   -0.0386 C   0  0  0  0  0  0  0  0  0  0  0  0
    0.8864   -1.2292    0.5206 C   0  0  0  0  0  0  0  0  0  0  0  0
   -2.1164    1.3628   -1.1453 C   0  0  0  0  0  0  0  0  0  0  0  0
    0.3322    2.4356   -0.0414 N   0  0  0  0  0  0  0  0  0  0  0  0
    1.5059    3.0779   -0.4191 C   0  0  0  0  0  0  0  0  0  0  0  0
    2.4788    2.5262   -0.9136 O   0  0  0  0  0  0  0  0  0  0  0  0
    1.3875    4.4373   -0.1742 N   0  0  0  0  0  0  0  0  0  0  0  0
    2.2903    5.4583   -0.5335 C   0  0  0  0  0  0  0  0  0  0  0  0
    3.3802    5.2709   -1.3862 C   0  0  0  0  0  0  0  0  0  0  0  0
    4.2154    6.3465   -1.6974 C   0  0  0  0  0  0  0  0  0  0  0  0
    3.9731    7.6137   -1.1706 C   0  0  0  0  0  0  0  0  0  0  0  0
    2.8840    7.8097   -0.3258 C   0  0  0  0  0  0  0  0  0  0  0  0
    2.0459    6.7369   -0.0117 C   0  0  0  0  0  0  0  0  0  0  0  0
    5.5593    6.1123   -2.7487 Cl  0  0  0  0  0  0  0  0  0  0  0  0
    2.2162    1.6107    1.7337 H   0  0  0  0  0  0  0  0  0  0  0  0
    3.2036    0.6403    0.5958 H   0  0  0  0  0  0  0  0  0  0  0  0
    2.5941   -0.0531    2.1079 H   0  0  0  0  0  0  0  0  0  0  0  0
   -2.1448   -1.3225   -0.9785 H   0  0  0  0  0  0  0  0  0  0  0  0
   -0.4306   -2.8284   -0.0607 H   0  0  0  0  0  0  0  0  0  0  0  0
    1.6220   -1.9127    0.9404 H   0  0  0  0  0  0  0  0  0  0  0  0
   -1.7176    1.9314   -1.9917 H   0  0  0  0  0  0  0  0  0  0  0  0
   -2.5135    2.0501   -0.3915 H   0  0  0  0  0  0  0  0  0  0  0  0
   -2.9573    0.7675   -1.5176 H   0  0  0  0  0  0  0  0  0  0  0  0
   -0.4821    2.9716   -0.2979 H   0  0  0  0  0  0  0  0  0  0  0  0
    0.6558    4.6864    0.4751 H   0  0  0  0  0  0  0  0  0  0  0  0
    3.5965    4.3023   -1.8261 H   0  0  0  0  0  0  0  0  0  0  0  0
    4.6267    8.4467   -1.4155 H   0  0  0  0  0  0  0  0  0  0  0  0
    2.6866    8.7954    0.0881 H   0  0  0  0  0  0  0  0  0  0  0  0
    1.2017    6.9155    0.6498 H   0  0  0  0  0  0  0  0  0  0  0  0
  1  2  1  0  0  0  0
  1 20  1  0  0  0  0
  1 21  1  0  0  0  0
  1 22  1  0  0  0  0
  2  3  2  0  0  0  0
  2  7  1  0  0  0  0
  3  4  1  0  0  0  0
  3  9  1  0  0  0  0
  4  5  2  0  0  0  0
  4  8  1  0  0  0  0
  5  6  1  0  0  0  0
  5 23  1  0  0  0  0
  6  7  2  0  0  0  0
  6 24  1  0  0  0  0
  7 25  1  0  0  0  0
  8 26  1  0  0  0  0
  8 27  1  0  0  0  0
  8 28  1  0  0  0  0
  9 10  1  0  0  0  0
  9 29  1  0  0  0  0
 10 11  2  0  0  0  0
 10 12  1  0  0  0  0
 12 13  1  0  0  0  0
 12 30  1  0  0  0  0
 13 14  2  0  0  0  0
 13 18  1  0  0  0  0
 14 15  1  0  0  0  0
 14 31  1  0  0  0  0
 15 16  2  0  0  0  0
 15 19  1  0  0  0  0
 16 17  1  0  0  0  0
 16 32  1  0  0  0  0
 17 18  2  0  0  0  0
 17 33  1  0  0  0  0
 18 34  1  0  0  0  0
M  END
