
 OpenBabel10072619433D

 30 30  0  0  1  0  0  0  0  0999 V2000
    1.5450    0.3680    0.1712 C   0  0  0  0  0  0  0  0  0  0  0  0
    0.4446    1.3456   -0.2494 C   0  0  2  0  0  0  0  0  0  0  0  0
    0.8300    2.8064   -0.0752 C   0  0  2  0  0  0  0  0  0  0  0  0
    0.5346    3.0474    1.3959 C   0  0  2  0  0  0  0  0  0  0  0  0
   -0.7291    2.1922    1.6003 C   0  0  1  0  0  0  0  0  0  0  0  0
   -0.6973    1.1379    0.6199 O   0  0  0  0  0  0  0  0  0  0  0  0
   -0.7899    1.5473    2.8719 N   0  0  0  0  0  0  0  0  0  0  0  0
   -1.2092    2.1804    3.9977 C   0  0  0  0  0  0  0  0  0  0  0  0
   -1.6542    3.3223    4.0075 O   0  0  0  0  0  0  0  0  0  0  0  0
   -1.0474    1.3638    5.0787 N   0  0  0  0  0  0  0  0  0  0  0  0
   -1.5331    1.7212    6.2153 C   0  0  0  0  0  0  0  0  0  0  0  0
   -2.2555    2.8162    6.5495 N   0  0  0  0  0  0  0  0  0  0  0  0
   -1.3690    0.9377    7.3071 N   0  0  0  0  0  0  0  0  0  0  0  0
    0.3636    4.4328    1.6684 O   0  0  0  0  0  0  0  0  0  0  0  0
   -0.0188    3.6671   -0.8593 O   0  0  0  0  0  0  0  0  0  0  0  0
    1.0995   -0.9710   -0.0394 O   0  0  0  0  0  0  0  0  0  0  0  0
    1.7921    0.4593    1.2331 H   0  0  0  0  0  0  0  0  0  0  0  0
    2.4538    0.5202   -0.4180 H   0  0  0  0  0  0  0  0  0  0  0  0
    0.1105    1.1204   -1.2681 H   0  0  0  0  0  0  0  0  0  0  0  0
    1.8630    3.0349   -0.3503 H   0  0  0  0  0  0  0  0  0  0  0  0
    1.3563    2.6773    2.0198 H   0  0  0  0  0  0  0  0  0  0  0  0
   -1.6405    2.7824    1.4503 H   0  0  0  0  0  0  0  0  0  0  0  0
   -0.4266    0.6174    2.9985 H   0  0  0  0  0  0  0  0  0  0  0  0
   -2.2627    3.5066    5.7933 H   0  0  0  0  0  0  0  0  0  0  0  0
   -1.9381    3.2462    7.4100 H   0  0  0  0  0  0  0  0  0  0  0  0
   -1.0195    0.0201    7.0528 H   0  0  0  0  0  0  0  0  0  0  0  0
   -2.2134    0.8689    7.8629 H   0  0  0  0  0  0  0  0  0  0  0  0
   -0.0021    4.8307    0.8525 H   0  0  0  0  0  0  0  0  0  0  0  0
   -0.8618    3.2052   -1.0298 H   0  0  0  0  0  0  0  0  0  0  0  0
    0.1892   -1.0200    0.3114 H   0  0  0  0  0  0  0  0  0  0  0  0
  1  2  1  0  0  0  0
  1 16  1  0  0  0  0
  1 17  1  0  0  0  0
  1 18  1  0  0  0  0
  2  3  1  0  0  0  0
  2  6  1  0  0  0  0
  2 19  1  6  0  0  0
  3  4  1  0  0  0  0
  3 15  1  0  0  0  0
  3 20  1  6  0  0  0
  4  5  1  0  0  0  0
  4 14  1  0  0  0  0
  4 21  1  1  0  0  0
  5  6  1  0  0  0  0
  5  7  1  0  0  0  0
  5 22  1  6  0  0  0
  7  8  1  0  0  0  0
  7 23  1  0  0  0  0
  8  9  2  0  0  0  0
  8 10  1  0  0  0  0
 10 11  2  0  0  0  0
 11 12  1  0  0  0  0
 11 13  1  0  0  0  0
 12 24  1  0  0  0  0
 12 25  1  0  0  0  0
 13 26  1  0  0  0  0
 13 27  1  0  0  0  0
 14 28  1  0  0  0  0
 15 29  1  0  0  0  0
 16 30  1  0  0  0  0
M  END
