
 OpenBabel10072620203D

 57 60  0  0  0  0  0  0  0  0999 V2000
    2.7112    0.1420    4.1892 C   0  0  0  0  0  0  0  0  0  0  0  0
    1.3004    0.3207    3.7066 C   0  0  0  0  0  0  0  0  0  0  0  0
    0.7120   -0.6344    2.8626 C   0  0  0  0  0  0  0  0  0  0  0  0
   -0.6173   -0.4391    2.4492 C   0  0  0  0  0  0  0  0  0  0  0  0
   -1.3607    0.6690    2.8524 C   0  0  0  0  0  0  0  0  0  0  0  0
   -0.7583    1.6151    3.7031 C   0  0  0  0  0  0  0  0  0  0  0  0
    0.5620    1.4300    4.1263 C   0  0  0  0  0  0  0  0  0  0  0  0
   -2.6521    0.7287    2.3595 N   0  0  0  0  0  0  0  0  0  0  0  0
   -2.9078   -0.3235    1.6084 C   0  0  0  0  0  0  0  0  0  0  0  0
   -1.5925   -1.4211    1.4290 S   0  0  0  0  0  0  0  0  0  0  0  0
   -4.1932   -0.5501    0.9261 C   0  0  0  0  0  0  0  0  0  0  0  0
   -4.9774    0.5553    0.5582 C   0  0  0  0  0  0  0  0  0  0  0  0
   -6.2099    0.3909   -0.0915 C   0  0  0  0  0  0  0  0  0  0  0  0
   -6.6893   -0.8830   -0.3788 C   0  0  0  0  0  0  0  0  0  0  0  0
   -5.9339   -1.9920    0.0225 C   0  0  0  0  0  0  0  0  0  0  0  0
   -4.6961   -1.8281    0.6548 C   0  0  0  0  0  0  0  0  0  0  0  0
   -7.9359   -1.1467   -0.9839 N   0  0  0  0  0  0  0  0  0  0  0  0
   -8.6966   -0.3958   -1.8711 C   0  0  0  0  0  0  0  0  0  0  0  0
   -8.2000    0.9158   -2.7785 S   0  0  0  0  0  0  0  0  0  0  0  0
   -9.9534   -0.9861   -1.9788 N   0  0  0  0  0  0  0  0  0  0  0  0
  -10.9935   -0.6187   -2.9392 C   0  0  0  0  0  0  0  0  0  0  0  0
  -12.1280   -1.6450   -2.9287 C   0  0  0  0  0  0  0  0  0  0  0  0
  -13.0427   -1.5131   -4.1190 C   0  0  0  0  0  0  0  0  0  0  0  0
  -13.9857   -0.4754   -4.1929 C   0  0  0  0  0  0  0  0  0  0  0  0
  -14.8372   -0.3441   -5.3026 C   0  0  0  0  0  0  0  0  0  0  0  0
  -14.7680   -1.2993   -6.3314 C   0  0  0  0  0  0  0  0  0  0  0  0
  -13.8075   -2.3159   -6.2669 C   0  0  0  0  0  0  0  0  0  0  0  0
  -12.9492   -2.4236   -5.1748 C   0  0  0  0  0  0  0  0  0  0  0  0
  -15.5149   -1.3430   -7.4807 O   0  0  0  0  0  0  0  0  0  0  0  0
  -16.8357   -0.8230   -7.4085 C   0  0  0  0  0  0  0  0  0  0  0  0
  -15.7497    0.6712   -5.4182 O   0  0  0  0  0  0  0  0  0  0  0  0
  -15.4622    1.8763   -4.7191 C   0  0  0  0  0  0  0  0  0  0  0  0
    3.2291   -0.6426    3.6282 H   0  0  0  0  0  0  0  0  0  0  0  0
    2.7135   -0.1325    5.2487 H   0  0  0  0  0  0  0  0  0  0  0  0
    3.2770    1.0699    4.0566 H   0  0  0  0  0  0  0  0  0  0  0  0
    1.2671   -1.5068    2.5291 H   0  0  0  0  0  0  0  0  0  0  0  0
   -1.3266    2.4825    4.0245 H   0  0  0  0  0  0  0  0  0  0  0  0
    1.0114    2.1687    4.7880 H   0  0  0  0  0  0  0  0  0  0  0  0
   -4.6292    1.5626    0.7818 H   0  0  0  0  0  0  0  0  0  0  0  0
   -6.7871    1.2830   -0.3169 H   0  0  0  0  0  0  0  0  0  0  0  0
   -6.2879   -3.0018   -0.1680 H   0  0  0  0  0  0  0  0  0  0  0  0
   -4.1465   -2.7207    0.9472 H   0  0  0  0  0  0  0  0  0  0  0  0
   -8.2191   -2.1184   -0.9637 H   0  0  0  0  0  0  0  0  0  0  0  0
  -10.2714   -1.4378   -1.1311 H   0  0  0  0  0  0  0  0  0  0  0  0
  -10.5349   -0.5579   -3.9324 H   0  0  0  0  0  0  0  0  0  0  0  0
  -11.3698    0.3778   -2.6773 H   0  0  0  0  0  0  0  0  0  0  0  0
  -12.7131   -1.5463   -2.0052 H   0  0  0  0  0  0  0  0  0  0  0  0
  -11.7098   -2.6606   -2.9018 H   0  0  0  0  0  0  0  0  0  0  0  0
  -14.0472    0.2220   -3.3620 H   0  0  0  0  0  0  0  0  0  0  0  0
  -13.7346   -3.0369   -7.0781 H   0  0  0  0  0  0  0  0  0  0  0  0
  -12.2161   -3.2272   -5.1552 H   0  0  0  0  0  0  0  0  0  0  0  0
  -17.4100   -1.2716   -8.2252 H   0  0  0  0  0  0  0  0  0  0  0  0
  -16.8312    0.2585   -7.5721 H   0  0  0  0  0  0  0  0  0  0  0  0
  -17.3376   -1.0896   -6.4720 H   0  0  0  0  0  0  0  0  0  0  0  0
  -16.1312    2.6500   -5.1075 H   0  0  0  0  0  0  0  0  0  0  0  0
  -14.4326    2.2091   -4.8905 H   0  0  0  0  0  0  0  0  0  0  0  0
  -15.6702    1.7647   -3.6504 H   0  0  0  0  0  0  0  0  0  0  0  0
  1  2  1  0  0  0  0
  1 33  1  0  0  0  0
  1 34  1  0  0  0  0
  1 35  1  0  0  0  0
  2  3  2  0  0  0  0
  2  7  1  0  0  0  0
  3  4  1  0  0  0  0
  3 36  1  0  0  0  0
  4  5  2  0  0  0  0
  4 10  1  0  0  0  0
  5  6  1  0  0  0  0
  5  8  1  0  0  0  0
  6  7  2  0  0  0  0
  6 37  1  0  0  0  0
  7 38  1  0  0  0  0
  8  9  2  0  0  0  0
  9 10  1  0  0  0  0
  9 11  1  0  0  0  0
 11 12  2  0  0  0  0
 11 16  1  0  0  0  0
 12 13  1  0  0  0  0
 12 39  1  0  0  0  0
 13 14  2  0  0  0  0
 13 40  1  0  0  0  0
 14 15  1  0  0  0  0
 14 17  1  0  0  0  0
 15 16  2  0  0  0  0
 15 41  1  0  0  0  0
 16 42  1  0  0  0  0
 17 18  1  0  0  0  0
 17 43  1  0  0  0  0
 18 19  2  0  0  0  0
 18 20  1  0  0  0  0
 20 21  1  0  0  0  0
 20 44  1  0  0  0  0
 21 22  1  0  0  0  0
 21 45  1  0  0  0  0
 21 46  1  0  0  0  0
 22 23  1  0  0  0  0
 22 47  1  0  0  0  0
 22 48  1  0  0  0  0
 23 24  2  0  0  0  0
 23 28  1  0  0  0  0
 24 25  1  0  0  0  0
 24 49  1  0  0  0  0
 25 26  2  0  0  0  0
 25 31  1  0  0  0  0
 26 27  1  0  0  0  0
 26 29  1  0  0  0  0
 27 28  2  0  0  0  0
 27 50  1  0  0  0  0
 28 51  1  0  0  0  0
 29 30  1  0  0  0  0
 30 52  1  0  0  0  0
 30 53  1  0  0  0  0
 30 54  1  0  0  0  0
 31 32  1  0  0  0  0
 32 55  1  0  0  0  0
 32 56  1  0  0  0  0
 32 57  1  0  0  0  0
M  END
