
 OpenBabel10072620183D

101106  0  0  1  0  0  0  0  0999 V2000
   14.9536  -10.8522    0.1642 C   0  0  0  0  0  0  0  0  0  0  0  0
   14.0436  -11.7598    0.9769 C   0  0  0  0  0  0  0  0  0  0  0  0
   13.1765  -10.9576    1.9457 C   0  0  0  0  0  0  0  0  0  0  0  0
   12.2576  -11.8662    2.7638 C   0  0  0  0  0  0  0  0  0  0  0  0
   11.3949  -11.0484    3.7274 C   0  0  0  0  0  0  0  0  0  0  0  0
   10.4725  -11.9492    4.5523 C   0  0  0  0  0  0  0  0  0  0  0  0
    9.6004  -11.1311    5.5083 C   0  0  0  0  0  0  0  0  0  0  0  0
    8.7302  -12.0310    6.3904 C   0  0  0  0  0  0  0  0  0  0  0  0
    7.8749  -11.2276    7.3286 C   0  0  3  0  0  0  0  0  0  0  0  0
    6.8856  -11.9624    8.1959 C   0  0  0  0  0  0  0  0  0  0  0  0
    6.3847  -10.9898    7.1643 C   0  0  3  0  0  0  0  0  0  0  0  0
    5.5576  -11.5045    6.0218 C   0  0  0  0  0  0  0  0  0  0  0  0
    5.2204  -10.3718    5.0520 C   0  0  0  0  0  0  0  0  0  0  0  0
    4.4115  -10.8692    3.8586 C   0  0  0  0  0  0  0  0  0  0  0  0
    4.0469   -9.7159    2.9262 C   0  0  0  0  0  0  0  0  0  0  0  0
    3.2395  -10.2255    1.7339 C   0  0  0  0  0  0  0  0  0  0  0  0
    2.9111   -9.0910    0.7623 C   0  0  0  0  0  0  0  0  0  0  0  0
    1.9922   -9.5410   -0.3840 C   0  0  0  0  0  0  0  0  0  0  0  0
    0.6116  -10.0680    0.0438 C   0  0  0  0  0  0  0  0  0  0  0  0
   -0.1585   -9.0432    0.8737 C   0  0  0  0  0  0  0  0  0  0  0  0
   -1.4921   -9.4436    1.2742 N   0  0  0  0  0  0  0  0  0  0  0  0
   -2.6479   -9.3141    0.5324 C   0  0  0  0  0  0  0  0  0  0  0  0
   -2.7033   -9.0478   -1.1219 S   0  0  0  0  0  0  0  0  0  0  0  0
   -3.7399   -9.3448    1.3970 N   0  0  0  0  0  0  0  0  0  0  0  0
   -5.0704   -9.5773    1.0183 C   0  0  0  0  0  0  0  0  0  0  0  0
   -6.0699   -8.7560    1.5418 C   0  0  0  0  0  0  0  0  0  0  0  0
   -7.3609   -9.0025    1.1214 C   0  0  0  0  0  0  0  0  0  0  0  0
   -7.6712  -10.0185    0.2410 C   0  0  0  0  0  0  0  0  0  0  0  0
   -6.6962  -10.8857   -0.2201 C   0  0  0  0  0  0  0  0  0  0  0  0
   -5.3851  -10.6603    0.1796 C   0  0  0  0  0  0  0  0  0  0  0  0
   -9.1298   -9.9681   -0.0786 C   0  0  0  0  0  0  0  0  0  0  0  0
   -9.8227  -11.2538    0.3192 C   0  0  0  0  0  0  0  0  0  0  0  0
  -10.4861  -12.0112   -0.6485 C   0  0  0  0  0  0  0  0  0  0  0  0
  -11.0551  -13.2446   -0.3237 C   0  0  0  0  0  0  0  0  0  0  0  0
  -10.9573  -13.7304    0.9763 C   0  0  0  0  0  0  0  0  0  0  0  0
  -10.3072  -12.9948    1.9566 C   0  0  0  0  0  0  0  0  0  0  0  0
   -9.7485  -11.7591    1.6353 C   0  0  0  0  0  0  0  0  0  0  0  0
  -11.4872  -14.9353    1.3240 O   0  0  0  0  0  0  0  0  0  0  0  0
  -10.6146  -11.6300   -1.9617 O   0  0  0  0  0  0  0  0  0  0  0  0
  -10.1009  -10.4216   -2.3612 C   0  0  0  0  0  0  0  0  0  0  0  0
   -9.3803   -9.5677   -1.5227 C   0  0  0  0  0  0  0  0  0  0  0  0
   -8.8793   -8.3637   -2.0677 C   0  0  0  0  0  0  0  0  0  0  0  0
   -9.1002   -8.0274   -3.4052 C   0  0  0  0  0  0  0  0  0  0  0  0
   -9.8302   -8.8906   -4.2104 C   0  0  0  0  0  0  0  0  0  0  0  0
  -10.3274  -10.0840   -3.6990 C   0  0  0  0  0  0  0  0  0  0  0  0
  -10.0832   -8.6016   -5.5170 O   0  0  0  0  0  0  0  0  0  0  0  0
   -9.5987   -8.8894    0.7763 O   0  0  0  0  0  0  0  0  0  0  0  0
   -8.5829   -8.2950    1.4666 C   0  0  0  0  0  0  0  0  0  0  0  0
   -8.6715   -7.3571    2.2357 O   0  0  0  0  0  0  0  0  0  0  0  0
   15.5650  -11.4454   -0.5226 H   0  0  0  0  0  0  0  0  0  0  0  0
   15.6272  -10.2859    0.8152 H   0  0  0  0  0  0  0  0  0  0  0  0
   14.3705  -10.1406   -0.4290 H   0  0  0  0  0  0  0  0  0  0  0  0
   14.6564  -12.4786    1.5332 H   0  0  0  0  0  0  0  0  0  0  0  0
   13.4065  -12.3341    0.2944 H   0  0  0  0  0  0  0  0  0  0  0  0
   12.5713  -10.2349    1.3846 H   0  0  0  0  0  0  0  0  0  0  0  0
   13.8188  -10.3838    2.6249 H   0  0  0  0  0  0  0  0  0  0  0  0
   12.8589  -12.5852    3.3338 H   0  0  0  0  0  0  0  0  0  0  0  0
   11.6123  -12.4442    2.0903 H   0  0  0  0  0  0  0  0  0  0  0  0
   10.7933  -10.3273    3.1607 H   0  0  0  0  0  0  0  0  0  0  0  0
   12.0413  -10.4708    4.4006 H   0  0  0  0  0  0  0  0  0  0  0  0
   11.0759  -12.6700    5.1187 H   0  0  0  0  0  0  0  0  0  0  0  0
    9.8259  -12.5257    3.8807 H   0  0  0  0  0  0  0  0  0  0  0  0
    8.9675  -10.4437    4.9322 H   0  0  0  0  0  0  0  0  0  0  0  0
   10.2449  -10.5120    6.1449 H   0  0  0  0  0  0  0  0  0  0  0  0
    9.3798  -12.6765    6.9951 H   0  0  0  0  0  0  0  0  0  0  0  0
    8.1350  -12.7032    5.7644 H   0  0  0  0  0  0  0  0  0  0  0  0
    8.4478  -10.4399    7.8126 H   0  0  0  0  0  0  0  0  0  0  0  0
    6.8127  -11.6838    9.2410 H   0  0  0  0  0  0  0  0  0  0  0  0
    6.7257  -13.0198    8.0210 H   0  0  0  0  0  0  0  0  0  0  0  0
    5.9953  -10.0480    7.5426 H   0  0  0  0  0  0  0  0  0  0  0  0
    4.6233  -11.9151    6.4257 H   0  0  0  0  0  0  0  0  0  0  0  0
    6.0501  -12.3291    5.4959 H   0  0  0  0  0  0  0  0  0  0  0  0
    6.1429   -9.8886    4.7044 H   0  0  0  0  0  0  0  0  0  0  0  0
    4.6419   -9.6060    5.5845 H   0  0  0  0  0  0  0  0  0  0  0  0
    3.4938  -11.3624    4.2018 H   0  0  0  0  0  0  0  0  0  0  0  0
    4.9951  -11.6168    3.3093 H   0  0  0  0  0  0  0  0  0  0  0  0
    4.9605   -9.2232    2.5759 H   0  0  0  0  0  0  0  0  0  0  0  0
    3.4648   -8.9636    3.4751 H   0  0  0  0  0  0  0  0  0  0  0  0
    2.3223  -10.6928    2.1108 H   0  0  0  0  0  0  0  0  0  0  0  0
    3.8073  -11.0022    1.2047 H   0  0  0  0  0  0  0  0  0  0  0  0
    3.8486   -8.7076    0.3335 H   0  0  0  0  0  0  0  0  0  0  0  0
    2.4654   -8.2469    1.3037 H   0  0  0  0  0  0  0  0  0  0  0  0
    2.5054  -10.3213   -0.9608 H   0  0  0  0  0  0  0  0  0  0  0  0
    1.8562   -8.6873   -1.0599 H   0  0  0  0  0  0  0  0  0  0  0  0
    0.7376  -10.9955    0.6105 H   0  0  0  0  0  0  0  0  0  0  0  0
    0.0513  -10.3481   -0.8563 H   0  0  0  0  0  0  0  0  0  0  0  0
   -0.2368   -8.0931    0.3364 H   0  0  0  0  0  0  0  0  0  0  0  0
    0.3623   -8.8656    1.8175 H   0  0  0  0  0  0  0  0  0  0  0  0
   -1.6093   -9.8161    2.2098 H   0  0  0  0  0  0  0  0  0  0  0  0
   -3.6138   -8.7582    2.2153 H   0  0  0  0  0  0  0  0  0  0  0  0
   -5.8510   -7.9264    2.2064 H   0  0  0  0  0  0  0  0  0  0  0  0
   -6.9443  -11.7153   -0.8734 H   0  0  0  0  0  0  0  0  0  0  0  0
   -4.6051  -11.3407   -0.1559 H   0  0  0  0  0  0  0  0  0  0  0  0
  -11.5602  -13.8144   -1.0961 H   0  0  0  0  0  0  0  0  0  0  0  0
  -10.2290  -13.3861    2.9677 H   0  0  0  0  0  0  0  0  0  0  0  0
   -9.2318  -11.2031    2.4158 H   0  0  0  0  0  0  0  0  0  0  0  0
  -11.9246  -15.3205    0.5445 H   0  0  0  0  0  0  0  0  0  0  0  0
   -8.2985   -7.6764   -1.4549 H   0  0  0  0  0  0  0  0  0  0  0  0
   -8.6948   -7.0977   -3.7950 H   0  0  0  0  0  0  0  0  0  0  0  0
  -10.8910  -10.7532   -4.3426 H   0  0  0  0  0  0  0  0  0  0  0  0
   -9.7068   -7.7281   -5.7221 H   0  0  0  0  0  0  0  0  0  0  0  0
  1  2  1  0  0  0  0
  1 50  1  0  0  0  0
  1 51  1  0  0  0  0
  1 52  1  0  0  0  0
  2  3  1  0  0  0  0
  2 53  1  0  0  0  0
  2 54  1  0  0  0  0
  3  4  1  0  0  0  0
  3 55  1  0  0  0  0
  3 56  1  0  0  0  0
  4  5  1  0  0  0  0
  4 57  1  0  0  0  0
  4 58  1  0  0  0  0
  5  6  1  0  0  0  0
  5 59  1  0  0  0  0
  5 60  1  0  0  0  0
  6  7  1  0  0  0  0
  6 61  1  0  0  0  0
  6 62  1  0  0  0  0
  7  8  1  0  0  0  0
  7 63  1  0  0  0  0
  7 64  1  0  0  0  0
  8  9  1  0  0  0  0
  8 65  1  0  0  0  0
  8 66  1  0  0  0  0
  9 10  1  0  0  0  0
  9 11  1  0  0  0  0
  9 67  1  0  0  0  0
 10 11  1  0  0  0  0
 10 68  1  0  0  0  0
 10 69  1  0  0  0  0
 11 12  1  0  0  0  0
 11 70  1  0  0  0  0
 12 13  1  0  0  0  0
 12 71  1  0  0  0  0
 12 72  1  0  0  0  0
 13 14  1  0  0  0  0
 13 73  1  0  0  0  0
 13 74  1  0  0  0  0
 14 15  1  0  0  0  0
 14 75  1  0  0  0  0
 14 76  1  0  0  0  0
 15 16  1  0  0  0  0
 15 77  1  0  0  0  0
 15 78  1  0  0  0  0
 16 17  1  0  0  0  0
 16 79  1  0  0  0  0
 16 80  1  0  0  0  0
 17 18  1  0  0  0  0
 17 81  1  0  0  0  0
 17 82  1  0  0  0  0
 18 19  1  0  0  0  0
 18 83  1  0  0  0  0
 18 84  1  0  0  0  0
 19 20  1  0  0  0  0
 19 85  1  0  0  0  0
 19 86  1  0  0  0  0
 20 21  1  0  0  0  0
 20 87  1  0  0  0  0
 20 88  1  0  0  0  0
 21 22  1  0  0  0  0
 21 89  1  0  0  0  0
 22 23  2  0  0  0  0
 22 24  1  0  0  0  0
 24 25  1  0  0  0  0
 24 90  1  0  0  0  0
 25 26  2  0  0  0  0
 25 30  1  0  0  0  0
 26 27  1  0  0  0  0
 26 91  1  0  0  0  0
 27 28  2  0  0  0  0
 27 48  1  0  0  0  0
 28 29  1  0  0  0  0
 28 31  1  0  0  0  0
 29 30  2  0  0  0  0
 29 92  1  0  0  0  0
 30 93  1  0  0  0  0
 31 32  1  0  0  0  0
 31 41  1  0  0  0  0
 31 47  1  0  0  0  0
 32 33  2  0  0  0  0
 32 37  1  0  0  0  0
 33 34  1  0  0  0  0
 33 39  1  0  0  0  0
 34 35  2  0  0  0  0
 34 94  1  0  0  0  0
 35 36  1  0  0  0  0
 35 38  1  0  0  0  0
 36 37  2  0  0  0  0
 36 95  1  0  0  0  0
 37 96  1  0  0  0  0
 38 97  1  0  0  0  0
 39 40  1  0  0  0  0
 40 41  2  0  0  0  0
 40 45  1  0  0  0  0
 41 42  1  0  0  0  0
 42 43  2  0  0  0  0
 42 98  1  0  0  0  0
 43 44  1  0  0  0  0
 43 99  1  0  0  0  0
 44 45  2  0  0  0  0
 44 46  1  0  0  0  0
 45100  1  0  0  0  0
 46101  1  0  0  0  0
 47 48  1  0  0  0  0
 48 49  2  0  0  0  0
M  END
