
 OpenBabel10072620013D

 50 54  0  0  1  0  0  0  0  0999 V2000
    1.4063   -0.7114    0.1266 C   0  0  0  0  0  0  0  0  0  0  0  0
    0.4430   -1.7184    0.1511 C   0  0  0  0  0  0  0  0  0  0  0  0
   -0.9074   -1.3999    0.0025 C   0  0  0  0  0  0  0  0  0  0  0  0
   -1.3075   -0.0650   -0.1779 C   0  0  0  0  0  0  0  0  0  0  0  0
   -0.3245    0.9384   -0.2072 C   0  0  0  0  0  0  0  0  0  0  0  0
    1.0241    0.6152   -0.0596 C   0  0  0  0  0  0  0  0  0  0  0  0
   -2.7666    0.3127   -0.3624 C   0  0  3  0  0  0  0  0  0  0  0  0
   -3.6194   -0.0684    0.8392 C   0  0  0  0  0  0  0  0  0  0  0  0
   -4.8185   -0.6587    0.6663 C   0  0  0  0  0  0  0  0  0  0  0  0
   -5.3152   -0.9218   -0.5951 N   0  0  0  0  0  0  0  0  0  0  0  0
   -4.5687   -0.7794   -1.7092 C   0  0  0  0  0  0  0  0  0  0  0  0
   -4.7981   -1.0897   -2.9606 N   0  0  0  0  0  0  0  0  0  0  0  0
   -3.6138   -0.7933   -3.5740 C   0  0  0  0  0  0  0  0  0  0  0  0
   -2.6718   -0.2657   -2.7932 N   0  0  0  0  0  0  0  0  0  0  0  0
   -3.3117   -0.2439   -1.6064 N   0  0  0  0  0  0  0  0  0  0  0  0
   -3.3236   -1.0717   -4.8880 N   0  0  0  0  0  0  0  0  0  0  0  0
   -4.0286   -0.1173   -6.0735 S   0  0  0  0  0  0  0  0  0  0  0  0
   -3.3562   -0.4441   -7.3136 O   0  0  0  0  0  0  0  0  0  0  0  0
   -5.4722   -0.1474   -5.9776 O   0  0  0  0  0  0  0  0  0  0  0  0
   -3.4826    1.5211   -5.6140 C   0  0  0  0  0  0  0  0  0  0  0  0
   -2.3042    2.0404   -6.1655 C   0  0  0  0  0  0  0  0  0  0  0  0
   -1.8732    3.3161   -5.7914 C   0  0  0  0  0  0  0  0  0  0  0  0
   -2.6210    4.0593   -4.8774 C   0  0  0  0  0  0  0  0  0  0  0  0
   -3.8141    3.5527   -4.3579 C   0  0  0  0  0  0  0  0  0  0  0  0
   -4.2581    2.2831   -4.7349 C   0  0  0  0  0  0  0  0  0  0  0  0
   -2.0785    5.6218   -4.4010 Cl  0  0  0  0  0  0  0  0  0  0  0  0
   -5.6256   -1.0631    1.8247 C   0  0  0  0  0  0  0  0  0  0  0  0
   -6.7635   -0.3328    2.1895 C   0  0  0  0  0  0  0  0  0  0  0  0
   -7.5284   -0.7277    3.2914 C   0  0  0  0  0  0  0  0  0  0  0  0
   -7.1627   -1.8542    4.0260 C   0  0  0  0  0  0  0  0  0  0  0  0
   -6.0406   -2.5949    3.6629 C   0  0  0  0  0  0  0  0  0  0  0  0
   -5.2700   -2.1989    2.5665 C   0  0  0  0  0  0  0  0  0  0  0  0
   -8.1030   -2.3363    5.3836 Cl  0  0  0  0  0  0  0  0  0  0  0  0
    2.4570   -0.9627    0.2469 H   0  0  0  0  0  0  0  0  0  0  0  0
    0.7442   -2.7560    0.2721 H   0  0  0  0  0  0  0  0  0  0  0  0
   -1.6431   -2.2021    0.0103 H   0  0  0  0  0  0  0  0  0  0  0  0
   -0.5999    1.9800   -0.3622 H   0  0  0  0  0  0  0  0  0  0  0  0
    1.7784    1.3970   -0.1014 H   0  0  0  0  0  0  0  0  0  0  0  0
   -2.8525    1.4014   -0.4879 H   0  0  0  0  0  0  0  0  0  0  0  0
   -3.2311    0.1492    1.8299 H   0  0  0  0  0  0  0  0  0  0  0  0
   -6.2170   -1.3901   -0.6502 H   0  0  0  0  0  0  0  0  0  0  0  0
   -2.3222   -1.1166   -5.0507 H   0  0  0  0  0  0  0  0  0  0  0  0
   -1.7158    1.4681   -6.8803 H   0  0  0  0  0  0  0  0  0  0  0  0
   -0.9588    3.7245   -6.2147 H   0  0  0  0  0  0  0  0  0  0  0  0
   -4.4048    4.1395   -3.6603 H   0  0  0  0  0  0  0  0  0  0  0  0
   -5.1909    1.8881   -4.3352 H   0  0  0  0  0  0  0  0  0  0  0  0
   -7.0593    0.5486    1.6240 H   0  0  0  0  0  0  0  0  0  0  0  0
   -8.4073   -0.1535    3.5695 H   0  0  0  0  0  0  0  0  0  0  0  0
   -5.7605   -3.4817    4.2240 H   0  0  0  0  0  0  0  0  0  0  0  0
   -4.3960   -2.7865    2.2910 H   0  0  0  0  0  0  0  0  0  0  0  0
  1  2  2  0  0  0  0
  1  6  1  0  0  0  0
  1 34  1  0  0  0  0
  2  3  1  0  0  0  0
  2 35  1  0  0  0  0
  3  4  2  0  0  0  0
  3 36  1  0  0  0  0
  4  5  1  0  0  0  0
  4  7  1  0  0  0  0
  5  6  2  0  0  0  0
  5 37  1  0  0  0  0
  6 38  1  0  0  0  0
  7  8  1  0  0  0  0
  7 15  1  0  0  0  0
  7 39  1  0  0  0  0
  8  9  2  0  0  0  0
  8 40  1  0  0  0  0
  9 10  1  0  0  0  0
  9 27  1  0  0  0  0
 10 11  1  0  0  0  0
 10 41  1  0  0  0  0
 11 12  2  0  0  0  0
 11 15  1  0  0  0  0
 12 13  1  0  0  0  0
 13 14  2  0  0  0  0
 13 16  1  0  0  0  0
 14 15  1  0  0  0  0
 16 17  1  0  0  0  0
 16 42  1  0  0  0  0
 17 18  2  0  0  0  0
 17 19  2  0  0  0  0
 17 20  1  0  0  0  0
 20 21  2  0  0  0  0
 20 25  1  0  0  0  0
 21 22  1  0  0  0  0
 21 43  1  0  0  0  0
 22 23  2  0  0  0  0
 22 44  1  0  0  0  0
 23 24  1  0  0  0  0
 23 26  1  0  0  0  0
 24 25  2  0  0  0  0
 24 45  1  0  0  0  0
 25 46  1  0  0  0  0
 27 28  2  0  0  0  0
 27 32  1  0  0  0  0
 28 29  1  0  0  0  0
 28 47  1  0  0  0  0
 29 30  2  0  0  0  0
 29 48  1  0  0  0  0
 30 31  1  0  0  0  0
 30 33  1  0  0  0  0
 31 32  2  0  0  0  0
 31 49  1  0  0  0  0
 32 50  1  0  0  0  0
M  END
