
 OpenBabel10072620163D

 36 37  0  0  0  0  0  0  0  0999 V2000
    6.7845    4.3817   -0.8887 C   0  0  0  0  0  0  0  0  0  0  0  0
    6.3220    3.0948   -1.2739 O   0  0  0  0  0  0  0  0  0  0  0  0
    6.9864    2.0639   -0.5513 C   0  0  0  0  0  0  0  0  0  0  0  0
    6.4960    0.7177   -1.0615 C   0  0  0  0  0  0  0  0  0  0  0  0
    6.6810    0.5973   -2.5752 C   0  0  0  0  0  0  0  0  0  0  0  0
    6.5917   -0.8180   -2.9444 N   0  0  0  0  0  0  0  0  0  0  0  0
    7.0495   -1.2846   -4.4904 S   0  0  0  0  0  0  0  0  0  0  0  0
    6.6291   -2.6581   -4.6483 O   0  0  0  0  0  0  0  0  0  0  0  0
    6.6503   -0.2487   -5.4163 O   0  0  0  0  0  0  0  0  0  0  0  0
    8.8171   -1.2848   -4.3620 C   0  0  0  0  0  0  0  0  0  0  0  0
    9.5708   -0.3707   -5.1053 C   0  0  0  0  0  0  0  0  0  0  0  0
   10.9586   -0.3651   -4.9616 C   0  0  0  0  0  0  0  0  0  0  0  0
   11.5855   -1.2647   -4.0952 C   0  0  0  0  0  0  0  0  0  0  0  0
   10.8212   -2.1736   -3.3615 C   0  0  0  0  0  0  0  0  0  0  0  0
    9.4329   -2.1916   -3.4946 C   0  0  0  0  0  0  0  0  0  0  0  0
   12.9326   -1.3128   -3.8785 O   0  0  0  0  0  0  0  0  0  0  0  0
   13.7123   -0.4137   -4.6485 C   0  0  0  0  0  0  0  0  0  0  0  0
   13.0730    0.6187   -5.5751 C   0  0  0  0  0  0  0  0  0  0  0  0
   13.7279    1.4477   -6.2056 O   0  0  0  0  0  0  0  0  0  0  0  0
   11.7130    0.5670   -5.6724 N   0  0  0  0  0  0  0  0  0  0  0  0
    6.2403    5.1314   -1.4685 H   0  0  0  0  0  0  0  0  0  0  0  0
    7.8542    4.4842   -1.0985 H   0  0  0  0  0  0  0  0  0  0  0  0
    6.5918    4.5500    0.1747 H   0  0  0  0  0  0  0  0  0  0  0  0
    6.7730    2.1641    0.5195 H   0  0  0  0  0  0  0  0  0  0  0  0
    8.0702    2.1441   -0.6972 H   0  0  0  0  0  0  0  0  0  0  0  0
    5.4292    0.6016   -0.8305 H   0  0  0  0  0  0  0  0  0  0  0  0
    7.0323   -0.0775   -0.5297 H   0  0  0  0  0  0  0  0  0  0  0  0
    7.6591    0.9941   -2.8669 H   0  0  0  0  0  0  0  0  0  0  0  0
    5.9020    1.1653   -3.0972 H   0  0  0  0  0  0  0  0  0  0  0  0
    5.8188   -1.3689   -2.5756 H   0  0  0  0  0  0  0  0  0  0  0  0
    9.0799    0.3317   -5.7753 H   0  0  0  0  0  0  0  0  0  0  0  0
   11.3096   -2.8612   -2.6762 H   0  0  0  0  0  0  0  0  0  0  0  0
    8.8402   -2.8986   -2.9181 H   0  0  0  0  0  0  0  0  0  0  0  0
   14.3822   -1.0194   -5.2688 H   0  0  0  0  0  0  0  0  0  0  0  0
   14.3336    0.1480   -3.9414 H   0  0  0  0  0  0  0  0  0  0  0  0
   11.2758    1.2475   -6.2794 H   0  0  0  0  0  0  0  0  0  0  0  0
  1  2  1  0  0  0  0
  1 21  1  0  0  0  0
  1 22  1  0  0  0  0
  1 23  1  0  0  0  0
  2  3  1  0  0  0  0
  3  4  1  0  0  0  0
  3 24  1  0  0  0  0
  3 25  1  0  0  0  0
  4  5  1  0  0  0  0
  4 26  1  0  0  0  0
  4 27  1  0  0  0  0
  5  6  1  0  0  0  0
  5 28  1  0  0  0  0
  5 29  1  0  0  0  0
  6  7  1  0  0  0  0
  6 30  1  0  0  0  0
  7  8  2  0  0  0  0
  7  9  2  0  0  0  0
  7 10  1  0  0  0  0
 10 11  2  0  0  0  0
 10 15  1  0  0  0  0
 11 12  1  0  0  0  0
 11 31  1  0  0  0  0
 12 13  2  0  0  0  0
 12 20  1  0  0  0  0
 13 14  1  0  0  0  0
 13 16  1  0  0  0  0
 14 15  2  0  0  0  0
 14 32  1  0  0  0  0
 15 33  1  0  0  0  0
 16 17  1  0  0  0  0
 17 18  1  0  0  0  0
 17 34  1  0  0  0  0
 17 35  1  0  0  0  0
 18 19  2  0  0  0  0
 18 20  1  0  0  0  0
 20 36  1  0  0  0  0
M  END
