
 OpenBabel10072619533D

 67 69  0  0  0  0  0  0  0  0999 V2000
    3.4511   -3.0595   -0.2545 C   0  0  0  0  0  0  0  0  0  0  0  0
    3.1818   -2.1501    0.9376 C   0  0  0  0  0  0  0  0  0  0  0  0
    3.7099   -0.7774    0.7944 N   0  0  0  0  0  0  0  0  0  0  0  0
    2.9604    0.0186   -0.1938 C   0  0  0  0  0  0  0  0  0  0  0  0
    3.5669   -0.0749   -1.5934 C   0  0  0  0  0  0  0  0  0  0  0  0
    3.7397   -0.1020    2.1171 C   0  0  0  0  0  0  0  0  0  0  0  0
    4.8836   -0.6032    3.0441 C   0  0  0  0  0  0  0  0  0  0  0  0
    6.1718    0.1187    2.8725 N   0  0  0  0  0  0  0  0  0  0  0  0
    6.7773   -0.0034    1.5294 C   0  0  0  0  0  0  0  0  0  0  0  0
    8.0659   -0.7764    1.4928 C   0  0  0  0  0  0  0  0  0  0  0  0
    8.5922   -1.5296    2.4753 C   0  0  0  0  0  0  0  0  0  0  0  0
    9.8953   -2.1741    2.3196 C   0  0  0  0  0  0  0  0  0  0  0  0
   10.4373   -2.9638    3.3395 C   0  0  0  0  0  0  0  0  0  0  0  0
   11.6801   -3.5234    3.1243 C   0  0  0  0  0  0  0  0  0  0  0  0
   12.3729   -3.3266    1.9493 C   0  0  0  0  0  0  0  0  0  0  0  0
   11.8667   -2.5683    0.9170 C   0  0  0  0  0  0  0  0  0  0  0  0
   10.6144   -1.9867    1.1182 C   0  0  0  0  0  0  0  0  0  0  0  0
   10.0439   -1.2079    0.1095 N   0  0  0  0  0  0  0  0  0  0  0  0
    8.8168   -0.6161    0.2085 C   0  0  0  0  0  0  0  0  0  0  0  0
    8.3611    0.0421   -0.7236 O   0  0  0  0  0  0  0  0  0  0  0  0
   13.5686   -3.9738    1.9337 O   0  0  0  0  0  0  0  0  0  0  0  0
   13.5493   -4.6080    3.2278 C   0  0  0  0  0  0  0  0  0  0  0  0
   12.3588   -4.3214    3.9919 O   0  0  0  0  0  0  0  0  0  0  0  0
    6.7881    0.8165    3.9320 C   0  0  0  0  0  0  0  0  0  0  0  0
    6.1843    0.8742    5.5036 S   0  0  0  0  0  0  0  0  0  0  0  0
    8.0046    1.3962    3.5980 N   0  0  0  0  0  0  0  0  0  0  0  0
    9.0055    1.8924    4.5450 C   0  0  0  0  0  0  0  0  0  0  0  0
   10.4398    1.7125    4.0442 C   0  0  0  0  0  0  0  0  0  0  0  0
   10.7713    2.6728    2.8970 C   0  0  0  0  0  0  0  0  0  0  0  0
   12.2057    2.6832    2.5705 N   0  0  0  0  0  0  0  0  0  0  0  0
   12.6425    1.4422    1.9289 C   0  0  0  0  0  0  0  0  0  0  0  0
   12.5322    3.8324    1.7234 C   0  0  0  0  0  0  0  0  0  0  0  0
    3.2590   -4.1006    0.0299 H   0  0  0  0  0  0  0  0  0  0  0  0
    4.4942   -2.9873   -0.5821 H   0  0  0  0  0  0  0  0  0  0  0  0
    2.7923   -2.8308   -1.0960 H   0  0  0  0  0  0  0  0  0  0  0  0
    3.6560   -2.6463    1.7918 H   0  0  0  0  0  0  0  0  0  0  0  0
    2.1063   -2.1365    1.1544 H   0  0  0  0  0  0  0  0  0  0  0  0
    3.0001    1.0826    0.0714 H   0  0  0  0  0  0  0  0  0  0  0  0
    1.8969   -0.2495   -0.2126 H   0  0  0  0  0  0  0  0  0  0  0  0
    4.6361    0.1688   -1.5772 H   0  0  0  0  0  0  0  0  0  0  0  0
    3.0646    0.6431   -2.2523 H   0  0  0  0  0  0  0  0  0  0  0  0
    3.4480   -1.0624   -2.0443 H   0  0  0  0  0  0  0  0  0  0  0  0
    2.7724   -0.2463    2.6156 H   0  0  0  0  0  0  0  0  0  0  0  0
    3.8675    0.9817    1.9969 H   0  0  0  0  0  0  0  0  0  0  0  0
    5.1100   -1.6646    2.9045 H   0  0  0  0  0  0  0  0  0  0  0  0
    4.5113   -0.5215    4.0662 H   0  0  0  0  0  0  0  0  0  0  0  0
    6.9220    1.0116    1.1451 H   0  0  0  0  0  0  0  0  0  0  0  0
    6.0950   -0.5070    0.8451 H   0  0  0  0  0  0  0  0  0  0  0  0
    8.0954   -1.6398    3.4342 H   0  0  0  0  0  0  0  0  0  0  0  0
    9.9126   -3.1413    4.2716 H   0  0  0  0  0  0  0  0  0  0  0  0
   12.4180   -2.4397   -0.0082 H   0  0  0  0  0  0  0  0  0  0  0  0
   10.5303   -1.0603   -0.7653 H   0  0  0  0  0  0  0  0  0  0  0  0
   13.6249   -5.6915    3.0885 H   0  0  0  0  0  0  0  0  0  0  0  0
   14.4176   -4.2701    3.8020 H   0  0  0  0  0  0  0  0  0  0  0  0
    8.0884    1.7488    2.6550 H   0  0  0  0  0  0  0  0  0  0  0  0
    8.9168    1.3425    5.4869 H   0  0  0  0  0  0  0  0  0  0  0  0
    8.7861    2.9467    4.7466 H   0  0  0  0  0  0  0  0  0  0  0  0
   10.6002    0.6705    3.7435 H   0  0  0  0  0  0  0  0  0  0  0  0
   11.1182    1.9108    4.8850 H   0  0  0  0  0  0  0  0  0  0  0  0
   10.4784    3.6795    3.2226 H   0  0  0  0  0  0  0  0  0  0  0  0
   10.1694    2.4349    2.0110 H   0  0  0  0  0  0  0  0  0  0  0  0
   12.5240    0.5862    2.6009 H   0  0  0  0  0  0  0  0  0  0  0  0
   13.7118    1.4933    1.6918 H   0  0  0  0  0  0  0  0  0  0  0  0
   12.0949    1.2388    1.0016 H   0  0  0  0  0  0  0  0  0  0  0  0
   12.2573    4.7698    2.2207 H   0  0  0  0  0  0  0  0  0  0  0  0
   12.0251    3.7952    0.7530 H   0  0  0  0  0  0  0  0  0  0  0  0
   13.6126    3.8841    1.5490 H   0  0  0  0  0  0  0  0  0  0  0  0
  1  2  1  0  0  0  0
  1 33  1  0  0  0  0
  1 34  1  0  0  0  0
  1 35  1  0  0  0  0
  2  3  1  0  0  0  0
  2 36  1  0  0  0  0
  2 37  1  0  0  0  0
  3  4  1  0  0  0  0
  3  6  1  0  0  0  0
  4  5  1  0  0  0  0
  4 38  1  0  0  0  0
  4 39  1  0  0  0  0
  5 40  1  0  0  0  0
  5 41  1  0  0  0  0
  5 42  1  0  0  0  0
  6  7  1  0  0  0  0
  6 43  1  0  0  0  0
  6 44  1  0  0  0  0
  7  8  1  0  0  0  0
  7 45  1  0  0  0  0
  7 46  1  0  0  0  0
  8  9  1  0  0  0  0
  8 24  1  0  0  0  0
  9 10  1  0  0  0  0
  9 47  1  0  0  0  0
  9 48  1  0  0  0  0
 10 11  2  0  0  0  0
 10 19  1  0  0  0  0
 11 12  1  0  0  0  0
 11 49  1  0  0  0  0
 12 13  2  0  0  0  0
 12 17  1  0  0  0  0
 13 14  1  0  0  0  0
 13 50  1  0  0  0  0
 14 15  2  0  0  0  0
 14 23  1  0  0  0  0
 15 16  1  0  0  0  0
 15 21  1  0  0  0  0
 16 17  2  0  0  0  0
 16 51  1  0  0  0  0
 17 18  1  0  0  0  0
 18 19  1  0  0  0  0
 18 52  1  0  0  0  0
 19 20  2  0  0  0  0
 21 22  1  0  0  0  0
 22 23  1  0  0  0  0
 22 53  1  0  0  0  0
 22 54  1  0  0  0  0
 24 25  2  0  0  0  0
 24 26  1  0  0  0  0
 26 27  1  0  0  0  0
 26 55  1  0  0  0  0
 27 28  1  0  0  0  0
 27 56  1  0  0  0  0
 27 57  1  0  0  0  0
 28 29  1  0  0  0  0
 28 58  1  0  0  0  0
 28 59  1  0  0  0  0
 29 30  1  0  0  0  0
 29 60  1  0  0  0  0
 29 61  1  0  0  0  0
 30 31  1  0  0  0  0
 30 32  1  0  0  0  0
 31 62  1  0  0  0  0
 31 63  1  0  0  0  0
 31 64  1  0  0  0  0
 32 65  1  0  0  0  0
 32 66  1  0  0  0  0
 32 67  1  0  0  0  0
M  END
