
 OpenBabel10072619483D

 65 66  0  0  0  0  0  0  0  0999 V2000
   -0.0067   -0.1200    3.8016 C   0  0  0  0  0  0  0  0  0  0  0  0
    1.4919   -0.0854    4.0547 C   0  0  0  0  0  0  0  0  0  0  0  0
    2.1563   -1.4217    3.7171 C   0  0  0  0  0  0  0  0  0  0  0  0
    3.6612   -1.3626    3.9786 C   0  0  0  0  0  0  0  0  0  0  0  0
    4.3577   -2.6859    3.6516 C   0  0  0  0  0  0  0  0  0  0  0  0
    5.8580   -2.5748    3.9252 C   0  0  0  0  0  0  0  0  0  0  0  0
    6.6079   -3.8696    3.6069 C   0  0  0  0  0  0  0  0  0  0  0  0
    8.0987   -3.6964    3.8972 C   0  0  0  0  0  0  0  0  0  0  0  0
    8.9052   -4.9563    3.5935 C   0  0  0  0  0  0  0  0  0  0  0  0
   10.3845   -4.7241    3.8927 C   0  0  0  0  0  0  0  0  0  0  0  0
   11.1129   -5.9164    3.5977 O   0  0  0  0  0  0  0  0  0  0  0  0
   12.4573   -5.8805    3.8565 C   0  0  0  0  0  0  0  0  0  0  0  0
   13.1678   -4.7797    4.3313 C   0  0  0  0  0  0  0  0  0  0  0  0
   14.5460   -4.8692    4.5620 C   0  0  0  0  0  0  0  0  0  0  0  0
   15.2338   -6.0608    4.3303 C   0  0  0  0  0  0  0  0  0  0  0  0
   14.5225   -7.1596    3.8379 C   0  0  0  0  0  0  0  0  0  0  0  0
   13.1441   -7.0693    3.6063 C   0  0  0  0  0  0  0  0  0  0  0  0
   16.6225   -6.2056    4.5316 N   0  0  0  0  0  0  0  0  0  0  0  0
   17.4590   -5.3244    5.2062 C   0  0  0  0  0  0  0  0  0  0  0  0
   17.0787   -4.3692    5.8703 O   0  0  0  0  0  0  0  0  0  0  0  0
   18.7851   -5.6762    5.0013 N   0  0  0  0  0  0  0  0  0  0  0  0
   19.9285   -5.1019    5.6081 C   0  0  0  0  0  0  0  0  0  0  0  0
   19.8293   -4.3020    6.7550 C   0  0  0  0  0  0  0  0  0  0  0  0
   20.9638   -3.7479    7.3526 C   0  0  0  0  0  0  0  0  0  0  0  0
   22.2211   -3.9989    6.8210 C   0  0  0  0  0  0  0  0  0  0  0  0
   22.3430   -4.8019    5.6884 C   0  0  0  0  0  0  0  0  0  0  0  0
   21.2077   -5.3592    5.0644 C   0  0  0  0  0  0  0  0  0  0  0  0
   21.4302   -6.2062    3.8296 C   0  0  0  0  0  0  0  0  0  0  0  0
   21.3961   -7.6967    4.1323 C   0  0  0  0  0  0  0  0  0  0  0  0
   -0.4534    0.8480    4.0515 H   0  0  0  0  0  0  0  0  0  0  0  0
   -0.4906   -0.8864    4.4158 H   0  0  0  0  0  0  0  0  0  0  0  0
   -0.2224   -0.3325    2.7494 H   0  0  0  0  0  0  0  0  0  0  0  0
    1.6723    0.1632    5.1073 H   0  0  0  0  0  0  0  0  0  0  0  0
    1.9390    0.7145    3.4523 H   0  0  0  0  0  0  0  0  0  0  0  0
    1.9747   -1.6683    2.6641 H   0  0  0  0  0  0  0  0  0  0  0  0
    1.7077   -2.2203    4.3200 H   0  0  0  0  0  0  0  0  0  0  0  0
    3.8391   -1.1078    5.0308 H   0  0  0  0  0  0  0  0  0  0  0  0
    4.1036   -0.5604    3.3751 H   0  0  0  0  0  0  0  0  0  0  0  0
    4.1896   -2.9444    2.5991 H   0  0  0  0  0  0  0  0  0  0  0  0
    3.9289   -3.4921    4.2591 H   0  0  0  0  0  0  0  0  0  0  0  0
    6.0154   -2.3149    4.9798 H   0  0  0  0  0  0  0  0  0  0  0  0
    6.2770   -1.7555    3.3270 H   0  0  0  0  0  0  0  0  0  0  0  0
    6.4637   -4.1346    2.5527 H   0  0  0  0  0  0  0  0  0  0  0  0
    6.2046   -4.6916    4.2103 H   0  0  0  0  0  0  0  0  0  0  0  0
    8.2345   -3.4236    4.9511 H   0  0  0  0  0  0  0  0  0  0  0  0
    8.4900   -2.8636    3.2999 H   0  0  0  0  0  0  0  0  0  0  0  0
    8.7827   -5.2480    2.5437 H   0  0  0  0  0  0  0  0  0  0  0  0
    8.5379   -5.8005    4.1891 H   0  0  0  0  0  0  0  0  0  0  0  0
   10.4960   -4.4681    4.9536 H   0  0  0  0  0  0  0  0  0  0  0  0
   10.7502   -3.8990    3.2688 H   0  0  0  0  0  0  0  0  0  0  0  0
   12.6906   -3.8264    4.5333 H   0  0  0  0  0  0  0  0  0  0  0  0
   15.0561   -3.9773    4.9129 H   0  0  0  0  0  0  0  0  0  0  0  0
   15.0213   -8.1026    3.6329 H   0  0  0  0  0  0  0  0  0  0  0  0
   12.6018   -7.9336    3.2303 H   0  0  0  0  0  0  0  0  0  0  0  0
   17.0148   -7.1121    4.3238 H   0  0  0  0  0  0  0  0  0  0  0  0
   18.9440   -6.2513    4.1911 H   0  0  0  0  0  0  0  0  0  0  0  0
   18.8707   -4.0982    7.2231 H   0  0  0  0  0  0  0  0  0  0  0  0
   20.8569   -3.1257    8.2377 H   0  0  0  0  0  0  0  0  0  0  0  0
   23.1044   -3.5704    7.2874 H   0  0  0  0  0  0  0  0  0  0  0  0
   23.3379   -4.9890    5.2887 H   0  0  0  0  0  0  0  0  0  0  0  0
   22.4005   -5.9609    3.3795 H   0  0  0  0  0  0  0  0  0  0  0  0
   20.6912   -5.9527    3.0608 H   0  0  0  0  0  0  0  0  0  0  0  0
   22.1700   -7.9656    4.8583 H   0  0  0  0  0  0  0  0  0  0  0  0
   21.5735   -8.2719    3.2180 H   0  0  0  0  0  0  0  0  0  0  0  0
   20.4309   -8.0099    4.5418 H   0  0  0  0  0  0  0  0  0  0  0  0
  1  2  1  0  0  0  0
  1 30  1  0  0  0  0
  1 31  1  0  0  0  0
  1 32  1  0  0  0  0
  2  3  1  0  0  0  0
  2 33  1  0  0  0  0
  2 34  1  0  0  0  0
  3  4  1  0  0  0  0
  3 35  1  0  0  0  0
  3 36  1  0  0  0  0
  4  5  1  0  0  0  0
  4 37  1  0  0  0  0
  4 38  1  0  0  0  0
  5  6  1  0  0  0  0
  5 39  1  0  0  0  0
  5 40  1  0  0  0  0
  6  7  1  0  0  0  0
  6 41  1  0  0  0  0
  6 42  1  0  0  0  0
  7  8  1  0  0  0  0
  7 43  1  0  0  0  0
  7 44  1  0  0  0  0
  8  9  1  0  0  0  0
  8 45  1  0  0  0  0
  8 46  1  0  0  0  0
  9 10  1  0  0  0  0
  9 47  1  0  0  0  0
  9 48  1  0  0  0  0
 10 11  1  0  0  0  0
 10 49  1  0  0  0  0
 10 50  1  0  0  0  0
 11 12  1  0  0  0  0
 12 13  2  0  0  0  0
 12 17  1  0  0  0  0
 13 14  1  0  0  0  0
 13 51  1  0  0  0  0
 14 15  2  0  0  0  0
 14 52  1  0  0  0  0
 15 16  1  0  0  0  0
 15 18  1  0  0  0  0
 16 17  2  0  0  0  0
 16 53  1  0  0  0  0
 17 54  1  0  0  0  0
 18 19  1  0  0  0  0
 18 55  1  0  0  0  0
 19 20  2  0  0  0  0
 19 21  1  0  0  0  0
 21 22  1  0  0  0  0
 21 56  1  0  0  0  0
 22 23  2  0  0  0  0
 22 27  1  0  0  0  0
 23 24  1  0  0  0  0
 23 57  1  0  0  0  0
 24 25  2  0  0  0  0
 24 58  1  0  0  0  0
 25 26  1  0  0  0  0
 25 59  1  0  0  0  0
 26 27  2  0  0  0  0
 26 60  1  0  0  0  0
 27 28  1  0  0  0  0
 28 29  1  0  0  0  0
 28 61  1  0  0  0  0
 28 62  1  0  0  0  0
 29 63  1  0  0  0  0
 29 64  1  0  0  0  0
 29 65  1  0  0  0  0
M  END
