
 OpenBabel10072620103D

 32 32  0  0  1  0  0  0  0  0999 V2000
    2.4383    1.4735    0.1326 C   0  0  0  0  0  0  0  0  0  0  0  0
    3.1332    0.2996    0.8086 C   0  0  0  0  0  0  0  0  0  0  0  0
    3.9014   -0.5569   -0.1948 C   0  0  0  0  0  0  0  0  0  0  0  0
    4.6005   -1.7362    0.4741 C   0  0  0  0  0  0  0  0  0  0  0  0
    5.1207   -2.6044   -0.5451 O   0  0  0  0  0  0  0  0  0  0  0  0
    6.4623   -2.6053   -0.7300 C   0  0  0  0  0  0  0  0  0  0  0  0
    7.2961   -1.9674   -0.1164 O   0  0  0  0  0  0  0  0  0  0  0  0
    6.7387   -3.5882   -1.7968 C   0  0  0  0  0  0  0  0  0  0  0  0
    7.8409   -3.6010   -2.5559 C   0  0  0  0  0  0  0  0  0  0  0  0
    8.8999   -2.5808   -2.4957 C   0  0  0  0  0  0  0  0  0  0  0  0
    8.7195   -1.3848   -2.6409 O   0  0  0  0  0  0  0  0  0  0  0  0
   10.0838   -3.2299   -2.3850 O   0  0  0  0  0  0  0  0  0  0  0  0
   11.2429   -2.3809   -2.4029 C   0  0  0  0  0  0  0  0  0  0  0  0
   11.5500   -1.9695   -3.8061 C   0  0  3  0  0  0  0  0  0  0  0  0
   12.0247   -2.9727   -4.8219 C   0  0  0  0  0  0  0  0  0  0  0  0
   12.9294   -2.0582   -4.1856 O   0  0  0  0  0  0  0  0  0  0  0  0
    1.8446    2.0391    0.8591 H   0  0  0  0  0  0  0  0  0  0  0  0
    1.7633    1.1298   -0.6581 H   0  0  0  0  0  0  0  0  0  0  0  0
    3.1677    2.1588   -0.3113 H   0  0  0  0  0  0  0  0  0  0  0  0
    2.3783   -0.3153    1.3127 H   0  0  0  0  0  0  0  0  0  0  0  0
    3.8146    0.6811    1.5771 H   0  0  0  0  0  0  0  0  0  0  0  0
    4.6467    0.0509   -0.7211 H   0  0  0  0  0  0  0  0  0  0  0  0
    3.2142   -0.9239   -0.9668 H   0  0  0  0  0  0  0  0  0  0  0  0
    3.8829   -2.3306    1.0494 H   0  0  0  0  0  0  0  0  0  0  0  0
    5.3749   -1.3905    1.1679 H   0  0  0  0  0  0  0  0  0  0  0  0
    5.9846   -4.3556   -1.9318 H   0  0  0  0  0  0  0  0  0  0  0  0
    7.9884   -4.3810   -3.2926 H   0  0  0  0  0  0  0  0  0  0  0  0
   12.0696   -2.9587   -1.9730 H   0  0  0  0  0  0  0  0  0  0  0  0
   11.1018   -1.5046   -1.7593 H   0  0  0  0  0  0  0  0  0  0  0  0
   10.9764   -1.1170   -4.1446 H   0  0  0  0  0  0  0  0  0  0  0  0
   11.7765   -2.7998   -5.8622 H   0  0  0  0  0  0  0  0  0  0  0  0
   12.0877   -4.0148   -4.5381 H   0  0  0  0  0  0  0  0  0  0  0  0
  1  2  1  0  0  0  0
  1 17  1  0  0  0  0
  1 18  1  0  0  0  0
  1 19  1  0  0  0  0
  2  3  1  0  0  0  0
  2 20  1  0  0  0  0
  2 21  1  0  0  0  0
  3  4  1  0  0  0  0
  3 22  1  0  0  0  0
  3 23  1  0  0  0  0
  4  5  1  0  0  0  0
  4 24  1  0  0  0  0
  4 25  1  0  0  0  0
  5  6  1  0  0  0  0
  6  7  2  0  0  0  0
  6  8  1  0  0  0  0
  8  9  2  0  0  0  0
  8 26  1  0  0  0  0
  9 10  1  0  0  0  0
  9 27  1  0  0  0  0
 10 11  2  0  0  0  0
 10 12  1  0  0  0  0
 12 13  1  0  0  0  0
 13 14  1  0  0  0  0
 13 28  1  0  0  0  0
 13 29  1  0  0  0  0
 14 15  1  0  0  0  0
 14 16  1  0  0  0  0
 14 30  1  0  0  0  0
 15 16  1  0  0  0  0
 15 31  1  0  0  0  0
 15 32  1  0  0  0  0
M  END
