
 OpenBabel10072619503D

 45 48  0  0  0  0  0  0  0  0999 V2000
    2.4652    0.9722   -0.9161 C   0  0  0  0  0  0  0  0  0  0  0  0
    0.9965    1.2656   -1.0209 C   0  0  0  0  0  0  0  0  0  0  0  0
    0.2814    1.7119    0.0987 C   0  0  0  0  0  0  0  0  0  0  0  0
   -1.0905    1.9501    0.0122 C   0  0  0  0  0  0  0  0  0  0  0  0
   -1.7464    1.7317   -1.2018 C   0  0  0  0  0  0  0  0  0  0  0  0
   -1.0559    1.2702   -2.3217 C   0  0  0  0  0  0  0  0  0  0  0  0
    0.3145    1.0253   -2.2244 C   0  0  0  0  0  0  0  0  0  0  0  0
   -3.1925    1.9961   -1.3025 C   0  0  0  0  0  0  0  0  0  0  0  0
   -3.5725    2.9082   -2.0219 O   0  0  0  0  0  0  0  0  0  0  0  0
   -3.9745    1.1073   -0.5963 N   0  0  0  0  0  0  0  0  0  0  0  0
   -5.3220    1.1624   -0.2744 C   0  0  0  0  0  0  0  0  0  0  0  0
   -5.9482    0.0611    0.1918 C   0  0  0  0  0  0  0  0  0  0  0  0
   -5.4149   -1.3011    0.2836 C   0  0  0  0  0  0  0  0  0  0  0  0
   -5.2633   -1.9204    1.5202 C   0  0  0  0  0  0  0  0  0  0  0  0
   -4.8355   -3.1946    1.6820 N   0  0  0  0  0  0  0  0  0  0  0  0
   -4.5725   -3.8927    0.5565 C   0  0  0  0  0  0  0  0  0  0  0  0
   -4.6958   -3.3692   -0.7206 C   0  0  0  0  0  0  0  0  0  0  0  0
   -5.1173   -2.0486   -0.8572 C   0  0  0  0  0  0  0  0  0  0  0  0
   -6.1034    2.3670   -0.2368 C   0  0  0  0  0  0  0  0  0  0  0  0
   -7.1468    2.6458    0.5317 N   0  0  0  0  0  0  0  0  0  0  0  0
   -7.4953    3.9414    0.2506 C   0  0  0  0  0  0  0  0  0  0  0  0
   -8.4907    4.7459    0.8176 C   0  0  0  0  0  0  0  0  0  0  0  0
   -8.6246    6.0627    0.3582 C   0  0  0  0  0  0  0  0  0  0  0  0
   -7.7884    6.5655   -0.6430 C   0  0  0  0  0  0  0  0  0  0  0  0
   -6.7881    5.7742   -1.2171 C   0  0  0  0  0  0  0  0  0  0  0  0
   -6.6825    4.4669   -0.7409 C   0  0  0  0  0  0  0  0  0  0  0  0
   -5.8394    3.4363   -1.0580 N   0  0  0  0  0  0  0  0  0  0  0  0
    2.9152    1.4974   -0.0669 H   0  0  0  0  0  0  0  0  0  0  0  0
    2.9924    1.3003   -1.8174 H   0  0  0  0  0  0  0  0  0  0  0  0
    2.6195   -0.1026   -0.7816 H   0  0  0  0  0  0  0  0  0  0  0  0
    0.7918    1.8834    1.0448 H   0  0  0  0  0  0  0  0  0  0  0  0
   -1.6326    2.3256    0.8768 H   0  0  0  0  0  0  0  0  0  0  0  0
   -1.5769    1.1041   -3.2620 H   0  0  0  0  0  0  0  0  0  0  0  0
    0.8518    0.6502   -3.0924 H   0  0  0  0  0  0  0  0  0  0  0  0
   -3.4954    0.2698   -0.2791 H   0  0  0  0  0  0  0  0  0  0  0  0
   -6.9849    0.1310    0.5291 H   0  0  0  0  0  0  0  0  0  0  0  0
   -5.4988   -1.3966    2.4439 H   0  0  0  0  0  0  0  0  0  0  0  0
   -4.2527   -4.9186    0.7153 H   0  0  0  0  0  0  0  0  0  0  0  0
   -4.4885   -3.9839   -1.5892 H   0  0  0  0  0  0  0  0  0  0  0  0
   -5.2407   -1.6231   -1.8506 H   0  0  0  0  0  0  0  0  0  0  0  0
   -9.1262    4.3528    1.6022 H   0  0  0  0  0  0  0  0  0  0  0  0
   -9.3861    6.7031    0.7948 H   0  0  0  0  0  0  0  0  0  0  0  0
   -7.9112    7.5927   -0.9804 H   0  0  0  0  0  0  0  0  0  0  0  0
   -6.1238    6.1594   -1.9825 H   0  0  0  0  0  0  0  0  0  0  0  0
   -5.0904    3.4757   -1.7395 H   0  0  0  0  0  0  0  0  0  0  0  0
  1  2  1  0  0  0  0
  1 28  1  0  0  0  0
  1 29  1  0  0  0  0
  1 30  1  0  0  0  0
  2  3  2  0  0  0  0
  2  7  1  0  0  0  0
  3  4  1  0  0  0  0
  3 31  1  0  0  0  0
  4  5  2  0  0  0  0
  4 32  1  0  0  0  0
  5  6  1  0  0  0  0
  5  8  1  0  0  0  0
  6  7  2  0  0  0  0
  6 33  1  0  0  0  0
  7 34  1  0  0  0  0
  8  9  2  0  0  0  0
  8 10  1  0  0  0  0
 10 11  1  0  0  0  0
 10 35  1  0  0  0  0
 11 12  2  0  0  0  0
 11 19  1  0  0  0  0
 12 13  1  0  0  0  0
 12 36  1  0  0  0  0
 13 14  2  0  0  0  0
 13 18  1  0  0  0  0
 14 15  1  0  0  0  0
 14 37  1  0  0  0  0
 15 16  2  0  0  0  0
 16 17  1  0  0  0  0
 16 38  1  0  0  0  0
 17 18  2  0  0  0  0
 17 39  1  0  0  0  0
 18 40  1  0  0  0  0
 19 20  2  0  0  0  0
 19 27  1  0  0  0  0
 20 21  1  0  0  0  0
 21 22  2  0  0  0  0
 21 26  1  0  0  0  0
 22 23  1  0  0  0  0
 22 41  1  0  0  0  0
 23 24  2  0  0  0  0
 23 42  1  0  0  0  0
 24 25  1  0  0  0  0
 24 43  1  0  0  0  0
 25 26  2  0  0  0  0
 25 44  1  0  0  0  0
 26 27  1  0  0  0  0
 27 45  1  0  0  0  0
M  END
