
 OpenBabel10072619433D

 62 64  0  0  1  0  0  0  0  0999 V2000
   -0.6235    1.6203   -2.4360 C   0  0  0  0  0  0  0  0  0  0  0  0
   -0.5190    0.9197   -1.1125 C   0  0  0  0  0  0  0  0  0  0  0  0
    0.2517    1.4330   -0.0475 C   0  0  0  0  0  0  0  0  0  0  0  0
    0.3199    0.7035    1.1528 C   0  0  0  0  0  0  0  0  0  0  0  0
   -0.3970   -0.4862    1.3242 C   0  0  0  0  0  0  0  0  0  0  0  0
   -1.2105   -0.9599    0.2990 C   0  0  0  0  0  0  0  0  0  0  0  0
   -1.2599   -0.2606   -0.9111 C   0  0  0  0  0  0  0  0  0  0  0  0
   -1.9976   -2.0792    0.3413 O   0  0  0  0  0  0  0  0  0  0  0  0
   -2.0981   -2.7632    1.5907 C   0  0  0  0  0  0  0  0  0  0  0  0
   -3.2417   -3.7877    1.5086 C   0  0  0  0  0  0  0  0  0  0  0  0
   -3.0234   -4.7869    0.3719 C   0  0  0  0  0  0  0  0  0  0  0  0
   -3.4100   -4.5235    2.8369 C   0  0  0  0  0  0  0  0  0  0  0  0
    1.0268    2.7184   -0.1308 C   0  0  0  0  0  0  0  0  0  0  0  0
    0.2657    3.8439    0.0008 C   0  0  0  0  0  0  0  0  0  0  0  0
    0.7450    5.2923   -0.1205 C   0  0  3  0  0  0  0  0  0  0  0  0
   -0.4431    6.0618   -0.4733 N   0  0  0  0  0  0  0  0  0  0  0  0
   -1.6077    5.3685   -0.2239 C   0  0  0  0  0  0  0  0  0  0  0  0
   -2.7478    5.7824   -0.3037 O   0  0  0  0  0  0  0  0  0  0  0  0
   -1.2142    3.9554    0.2051 C   0  0  0  0  0  0  0  0  0  0  0  0
   -2.0047    3.1691    0.6829 O   0  0  0  0  0  0  0  0  0  0  0  0
   -0.4353    7.5013   -0.6813 C   0  0  0  0  0  0  0  0  0  0  0  0
   -0.8744    8.3352    0.5249 C   0  0  0  0  0  0  0  0  0  0  0  0
   -0.0002    8.1762    1.7605 C   0  0  0  0  0  0  0  0  0  0  0  0
    1.3707    8.3834    1.4189 O   0  0  0  0  0  0  0  0  0  0  0  0
    2.1967    8.3562    2.5777 C   0  0  0  0  0  0  0  0  0  0  0  0
    1.8868    5.4919   -1.1099 C   0  0  0  0  0  0  0  0  0  0  0  0
    1.7132    5.1972   -2.4684 C   0  0  0  0  0  0  0  0  0  0  0  0
    2.8306    5.0029   -3.2590 C   0  0  0  0  0  0  0  0  0  0  0  0
    4.0583    5.1314   -2.7329 N   0  3  0  0  0  0  0  0  0  0  0  0
    4.2605    5.4829   -1.4563 C   0  0  0  0  0  0  0  0  0  0  0  0
    3.1827    5.7039   -0.6181 C   0  0  0  0  0  0  0  0  0  0  0  0
    2.2798    2.6519   -0.3142 O   0  5  0  0  0  0  0  0  0  0  0  0
    0.3508    1.9854   -2.7732 H   0  0  0  0  0  0  0  0  0  0  0  0
   -1.3235    2.4578   -2.3683 H   0  0  0  0  0  0  0  0  0  0  0  0
   -0.9866    0.9407   -3.2148 H   0  0  0  0  0  0  0  0  0  0  0  0
    0.9479    1.0747    1.9593 H   0  0  0  0  0  0  0  0  0  0  0  0
   -0.3007   -1.0028    2.2712 H   0  0  0  0  0  0  0  0  0  0  0  0
   -1.8946   -0.6447   -1.7062 H   0  0  0  0  0  0  0  0  0  0  0  0
   -2.3273   -2.0535    2.3942 H   0  0  0  0  0  0  0  0  0  0  0  0
   -1.1491   -3.2695    1.8042 H   0  0  0  0  0  0  0  0  0  0  0  0
   -4.1708   -3.2451    1.2918 H   0  0  0  0  0  0  0  0  0  0  0  0
   -2.0935   -5.3475    0.5117 H   0  0  0  0  0  0  0  0  0  0  0  0
   -2.9730   -4.2803   -0.5971 H   0  0  0  0  0  0  0  0  0  0  0  0
   -3.8486   -5.5051    0.3239 H   0  0  0  0  0  0  0  0  0  0  0  0
   -2.5204   -5.1133    3.0827 H   0  0  0  0  0  0  0  0  0  0  0  0
   -4.2654   -5.2061    2.7933 H   0  0  0  0  0  0  0  0  0  0  0  0
   -3.5880   -3.8190    3.6560 H   0  0  0  0  0  0  0  0  0  0  0  0
    1.0523    5.6351    0.8752 H   0  0  0  0  0  0  0  0  0  0  0  0
   -1.1444    7.7011   -1.4954 H   0  0  0  0  0  0  0  0  0  0  0  0
    0.5494    7.8191   -1.0371 H   0  0  0  0  0  0  0  0  0  0  0  0
   -1.9126    8.1103    0.7947 H   0  0  0  0  0  0  0  0  0  0  0  0
   -0.8519    9.3886    0.2181 H   0  0  0  0  0  0  0  0  0  0  0  0
   -0.1251    7.1765    2.1901 H   0  0  0  0  0  0  0  0  0  0  0  0
   -0.3064    8.9119    2.5136 H   0  0  0  0  0  0  0  0  0  0  0  0
    3.2363    8.4736    2.2609 H   0  0  0  0  0  0  0  0  0  0  0  0
    2.0952    7.4001    3.1001 H   0  0  0  0  0  0  0  0  0  0  0  0
    1.9400    9.1831    3.2467 H   0  0  0  0  0  0  0  0  0  0  0  0
    0.7241    4.9804   -2.8653 H   0  0  0  0  0  0  0  0  0  0  0  0
    2.7729    4.6902   -4.2944 H   0  0  0  0  0  0  0  0  0  0  0  0
    4.8621    4.8929   -3.3066 H   0  0  0  0  0  0  0  0  0  0  0  0
    5.2883    5.5185   -1.1135 H   0  0  0  0  0  0  0  0  0  0  0  0
    3.3504    5.8826    0.4408 H   0  0  0  0  0  0  0  0  0  0  0  0
  1  2  1  0  0  0  0
  1 33  1  0  0  0  0
  1 34  1  0  0  0  0
  1 35  1  0  0  0  0
  2  3  2  0  0  0  0
  2  7  1  0  0  0  0
  3  4  1  0  0  0  0
  3 13  1  0  0  0  0
  4  5  2  0  0  0  0
  4 36  1  0  0  0  0
  5  6  1  0  0  0  0
  5 37  1  0  0  0  0
  6  7  2  0  0  0  0
  6  8  1  0  0  0  0
  7 38  1  0  0  0  0
  8  9  1  0  0  0  0
  9 10  1  0  0  0  0
  9 39  1  0  0  0  0
  9 40  1  0  0  0  0
 10 11  1  0  0  0  0
 10 12  1  0  0  0  0
 10 41  1  0  0  0  0
 11 42  1  0  0  0  0
 11 43  1  0  0  0  0
 11 44  1  0  0  0  0
 12 45  1  0  0  0  0
 12 46  1  0  0  0  0
 12 47  1  0  0  0  0
 13 14  2  0  0  0  0
 13 32  1  0  0  0  0
 14 15  1  0  0  0  0
 14 19  1  0  0  0  0
 15 16  1  0  0  0  0
 15 26  1  0  0  0  0
 15 48  1  0  0  0  0
 16 17  1  0  0  0  0
 16 21  1  0  0  0  0
 17 18  2  0  0  0  0
 17 19  1  0  0  0  0
 19 20  2  0  0  0  0
 21 22  1  0  0  0  0
 21 49  1  0  0  0  0
 21 50  1  0  0  0  0
 22 23  1  0  0  0  0
 22 51  1  0  0  0  0
 22 52  1  0  0  0  0
 23 24  1  0  0  0  0
 23 53  1  0  0  0  0
 23 54  1  0  0  0  0
 24 25  1  0  0  0  0
 25 55  1  0  0  0  0
 25 56  1  0  0  0  0
 25 57  1  0  0  0  0
 26 27  2  0  0  0  0
 26 31  1  0  0  0  0
 27 28  1  0  0  0  0
 27 58  1  0  0  0  0
 28 29  2  0  0  0  0
 28 59  1  0  0  0  0
 29 30  1  0  0  0  0
 29 60  1  0  0  0  0
 30 31  2  0  0  0  0
 30 61  1  0  0  0  0
 31 62  1  0  0  0  0
M  CHG  2  29   1  32  -1
M  END
