
 OpenBabel10072620093D

 65 68  0  0  0  0  0  0  0  0999 V2000
    4.5353    2.0691   -1.7206 C   0  0  0  0  0  0  0  0  0  0  0  0
    5.5653    1.0198   -1.3458 C   0  0  0  0  0  0  0  0  0  0  0  0
    6.0291    1.2986   -0.0260 O   0  0  0  0  0  0  0  0  0  0  0  0
    6.9500    0.3116    0.4364 C   0  0  0  0  0  0  0  0  0  0  0  0
    7.3884    0.6558    1.8551 C   0  0  0  0  0  0  0  0  0  0  0  0
    6.1980    0.7146    2.8160 C   0  0  0  0  0  0  0  0  0  0  0  0
    6.6716    0.9916    4.1905 N   0  0  0  0  0  0  0  0  0  0  0  0
    6.8227    2.3352    4.6073 C   0  0  0  0  0  0  0  0  0  0  0  0
    7.3641    2.5779    5.8216 C   0  0  0  0  0  0  0  0  0  0  0  0
    7.8962    1.4904    6.6291 C   0  0  0  0  0  0  0  0  0  0  0  0
    7.7154    0.1947    6.3093 C   0  0  0  0  0  0  0  0  0  0  0  0
    6.8873   -0.0866    5.0800 C   0  0  0  0  0  0  0  0  0  0  0  0
    6.2990   -1.2162    4.7756 N   0  0  0  0  0  0  0  0  0  0  0  0
    6.2531   -2.3332    5.5634 C   0  0  0  0  0  0  0  0  0  0  0  0
    5.7154   -2.3128    6.7947 C   0  0  0  0  0  0  0  0  0  0  0  0
    6.5645   -3.6310    4.8927 C   0  0  0  0  0  0  0  0  0  0  0  0
    6.4148   -3.7382    3.4975 C   0  0  0  0  0  0  0  0  0  0  0  0
    6.6960   -4.9431    2.8415 C   0  0  0  0  0  0  0  0  0  0  0  0
    7.1611   -6.0529    3.5516 C   0  0  0  0  0  0  0  0  0  0  0  0
    7.3084   -5.9611    4.9331 C   0  0  0  0  0  0  0  0  0  0  0  0
    7.0029   -4.7657    5.5940 C   0  0  0  0  0  0  0  0  0  0  0  0
    6.4703   -5.0518    1.3987 N   0  3  0  0  0  0  0  0  0  0  0  0
    6.3475   -4.0021    0.7507 O   0  0  0  0  0  0  0  0  0  0  0  0
    6.4121   -6.1909    0.9129 O   0  5  0  0  0  0  0  0  0  0  0  0
    8.5000   -0.7684    7.1026 C   0  0  0  0  0  0  0  0  0  0  0  0
    8.5772   -0.7412    8.3220 O   0  0  0  0  0  0  0  0  0  0  0  0
    9.2534   -1.5425    6.2769 O   0  0  0  0  0  0  0  0  0  0  0  0
   10.3212   -2.2584    6.9193 C   0  0  0  0  0  0  0  0  0  0  0  0
    9.8475   -3.5900    7.4721 C   0  0  0  0  0  0  0  0  0  0  0  0
    7.4828    3.9883    6.2882 C   0  0  0  0  0  0  0  0  0  0  0  0
    7.9919    4.2281    7.3863 O   0  0  0  0  0  0  0  0  0  0  0  0
    6.9928    4.9591    5.4307 N   0  0  0  0  0  0  0  0  0  0  0  0
    7.0322    6.2979    5.8084 C   0  0  0  0  0  0  0  0  0  0  0  0
    6.5726    7.2702    5.0099 C   0  0  0  0  0  0  0  0  0  0  0  0
    6.0326    6.9406    3.7174 C   0  0  0  0  0  0  0  0  0  0  0  0
    5.9905    5.6673    3.3070 C   0  0  0  0  0  0  0  0  0  0  0  0
    6.4804    4.5819    4.2035 C   0  0  0  0  0  0  0  0  0  0  0  0
    6.4007    3.3596    3.7938 N   0  0  0  0  0  0  0  0  0  0  0  0
    4.1341    1.8863   -2.7221 H   0  0  0  0  0  0  0  0  0  0  0  0
    4.9792    3.0701   -1.6959 H   0  0  0  0  0  0  0  0  0  0  0  0
    3.7073    2.0711   -1.0030 H   0  0  0  0  0  0  0  0  0  0  0  0
    6.4070    1.0558   -2.0465 H   0  0  0  0  0  0  0  0  0  0  0  0
    5.1086    0.0241   -1.3802 H   0  0  0  0  0  0  0  0  0  0  0  0
    7.8261    0.2972   -0.2220 H   0  0  0  0  0  0  0  0  0  0  0  0
    6.4756   -0.6763    0.4150 H   0  0  0  0  0  0  0  0  0  0  0  0
    7.8927    1.6295    1.8525 H   0  0  0  0  0  0  0  0  0  0  0  0
    8.1198   -0.0848    2.2003 H   0  0  0  0  0  0  0  0  0  0  0  0
    5.6372   -0.2256    2.7590 H   0  0  0  0  0  0  0  0  0  0  0  0
    5.4857    1.4834    2.4969 H   0  0  0  0  0  0  0  0  0  0  0  0
    8.5308    1.7723    7.4687 H   0  0  0  0  0  0  0  0  0  0  0  0
    5.3571   -1.3848    7.2305 H   0  0  0  0  0  0  0  0  0  0  0  0
    5.5729   -3.2019    7.3990 H   0  0  0  0  0  0  0  0  0  0  0  0
    6.0508   -2.8816    2.9329 H   0  0  0  0  0  0  0  0  0  0  0  0
    7.4019   -6.9868    3.0496 H   0  0  0  0  0  0  0  0  0  0  0  0
    7.6558   -6.8210    5.5016 H   0  0  0  0  0  0  0  0  0  0  0  0
    7.1236   -4.7319    6.6741 H   0  0  0  0  0  0  0  0  0  0  0  0
   10.7811   -1.6459    7.7045 H   0  0  0  0  0  0  0  0  0  0  0  0
   11.0941   -2.4302    6.1616 H   0  0  0  0  0  0  0  0  0  0  0  0
    8.9302   -3.4829    8.0598 H   0  0  0  0  0  0  0  0  0  0  0  0
   10.6199   -4.0491    8.0984 H   0  0  0  0  0  0  0  0  0  0  0  0
    9.6258   -4.2769    6.6500 H   0  0  0  0  0  0  0  0  0  0  0  0
    7.4522    6.5260    6.7855 H   0  0  0  0  0  0  0  0  0  0  0  0
    6.6013    8.3110    5.3169 H   0  0  0  0  0  0  0  0  0  0  0  0
    5.6701    7.7444    3.0844 H   0  0  0  0  0  0  0  0  0  0  0  0
    5.5960    5.3763    2.3411 H   0  0  0  0  0  0  0  0  0  0  0  0
  1  2  1  0  0  0  0
  1 39  1  0  0  0  0
  1 40  1  0  0  0  0
  1 41  1  0  0  0  0
  2  3  1  0  0  0  0
  2 42  1  0  0  0  0
  2 43  1  0  0  0  0
  3  4  1  0  0  0  0
  4  5  1  0  0  0  0
  4 44  1  0  0  0  0
  4 45  1  0  0  0  0
  5  6  1  0  0  0  0
  5 46  1  0  0  0  0
  5 47  1  0  0  0  0
  6  7  1  0  0  0  0
  6 48  1  0  0  0  0
  6 49  1  0  0  0  0
  7  8  1  0  0  0  0
  7 12  1  0  0  0  0
  8  9  2  0  0  0  0
  8 38  1  0  0  0  0
  9 10  1  0  0  0  0
  9 30  1  0  0  0  0
 10 11  2  0  0  0  0
 10 50  1  0  0  0  0
 11 12  1  0  0  0  0
 11 25  1  0  0  0  0
 12 13  2  3  0  0  0
 13 14  1  0  0  0  0
 14 15  2  0  0  0  0
 14 16  1  0  0  0  0
 15 51  1  0  0  0  0
 15 52  1  0  0  0  0
 16 17  2  0  0  0  0
 16 21  1  0  0  0  0
 17 18  1  0  0  0  0
 17 53  1  0  0  0  0
 18 19  2  0  0  0  0
 18 22  1  0  0  0  0
 19 20  1  0  0  0  0
 19 54  1  0  0  0  0
 20 21  2  0  0  0  0
 20 55  1  0  0  0  0
 21 56  1  0  0  0  0
 22 23  2  0  0  0  0
 22 24  1  0  0  0  0
 25 26  2  0  0  0  0
 25 27  1  0  0  0  0
 27 28  1  0  0  0  0
 28 29  1  0  0  0  0
 28 57  1  0  0  0  0
 28 58  1  0  0  0  0
 29 59  1  0  0  0  0
 29 60  1  0  0  0  0
 29 61  1  0  0  0  0
 30 31  2  0  0  0  0
 30 32  1  0  0  0  0
 32 33  1  0  0  0  0
 32 37  1  0  0  0  0
 33 34  2  0  0  0  0
 33 62  1  0  0  0  0
 34 35  1  0  0  0  0
 34 63  1  0  0  0  0
 35 36  2  0  0  0  0
 35 64  1  0  0  0  0
 36 37  1  0  0  0  0
 36 65  1  0  0  0  0
 37 38  2  0  0  0  0
M  CHG  2  22   1  24  -1
M  END
