
 OpenBabel10072619573D

 27 27  0  0  0  0  0  0  0  0999 V2000
    2.1781    0.1950   -0.0096 C   0  0  0  0  0  0  0  0  0  0  0  0
    0.6847    0.0447   -0.0446 C   0  0  0  0  0  0  0  0  0  0  0  0
   -0.1407    1.1749   -0.1162 C   0  0  0  0  0  0  0  0  0  0  0  0
   -1.5287    1.0372   -0.1439 C   0  0  0  0  0  0  0  0  0  0  0  0
   -2.0933   -0.2398   -0.0997 C   0  0  0  0  0  0  0  0  0  0  0  0
   -1.2863   -1.3744    0.0140 C   0  0  0  0  0  0  0  0  0  0  0  0
    0.1020   -1.2284    0.0375 C   0  0  0  0  0  0  0  0  0  0  0  0
   -3.8603   -0.4107   -0.1768 S   0  0  0  0  0  0  0  0  0  0  0  0
   -4.2036   -1.7545    0.2328 O   0  0  0  0  0  0  0  0  0  0  0  0
   -4.4425    0.7533    0.4527 O   0  0  0  0  0  0  0  0  0  0  0  0
   -4.1637   -0.2723   -1.8228 N   0  0  0  0  0  0  0  0  0  0  0  0
   -3.5508   -1.2408   -2.7188 C   0  0  0  0  0  0  0  0  0  0  0  0
   -4.1464   -1.0093   -4.0728 C   0  0  0  0  0  0  0  0  0  0  0  0
   -3.4835   -0.4983   -5.1196 C   0  0  0  0  0  0  0  0  0  0  0  0
    2.4816    1.2103   -0.2872 H   0  0  0  0  0  0  0  0  0  0  0  0
    2.6486   -0.4922   -0.7204 H   0  0  0  0  0  0  0  0  0  0  0  0
    2.5526   -0.0123    0.9973 H   0  0  0  0  0  0  0  0  0  0  0  0
    0.2949    2.1715   -0.1497 H   0  0  0  0  0  0  0  0  0  0  0  0
   -2.1576    1.9232   -0.1960 H   0  0  0  0  0  0  0  0  0  0  0  0
   -1.7260   -2.3675    0.0780 H   0  0  0  0  0  0  0  0  0  0  0  0
    0.7291   -2.1137    0.1231 H   0  0  0  0  0  0  0  0  0  0  0  0
   -4.2031    0.6940   -2.1398 H   0  0  0  0  0  0  0  0  0  0  0  0
   -3.7626   -2.2663   -2.4012 H   0  0  0  0  0  0  0  0  0  0  0  0
   -2.4666   -1.0959   -2.7536 H   0  0  0  0  0  0  0  0  0  0  0  0
   -5.1872   -1.3031   -4.1977 H   0  0  0  0  0  0  0  0  0  0  0  0
   -2.4425   -0.1969   -5.0497 H   0  0  0  0  0  0  0  0  0  0  0  0
   -3.9788   -0.3658   -6.0773 H   0  0  0  0  0  0  0  0  0  0  0  0
  1  2  1  0  0  0  0
  1 15  1  0  0  0  0
  1 16  1  0  0  0  0
  1 17  1  0  0  0  0
  2  3  2  0  0  0  0
  2  7  1  0  0  0  0
  3  4  1  0  0  0  0
  3 18  1  0  0  0  0
  4  5  2  0  0  0  0
  4 19  1  0  0  0  0
  5  6  1  0  0  0  0
  5  8  1  0  0  0  0
  6  7  2  0  0  0  0
  6 20  1  0  0  0  0
  7 21  1  0  0  0  0
  8  9  2  0  0  0  0
  8 10  2  0  0  0  0
  8 11  1  0  0  0  0
 11 12  1  0  0  0  0
 11 22  1  0  0  0  0
 12 13  1  0  0  0  0
 12 23  1  0  0  0  0
 12 24  1  0  0  0  0
 13 14  2  0  0  0  0
 13 25  1  0  0  0  0
 14 26  1  0  0  0  0
 14 27  1  0  0  0  0
M  END
