
 OpenBabel10072619483D

 46 48  0  0  1  0  0  0  0  0999 V2000
    2.6458    0.3306    0.4632 C   0  0  0  0  0  0  0  0  0  0  0  0
    3.3172   -0.2861   -0.7638 C   0  0  3  0  0  0  0  0  0  0  0  0
    3.3799    0.6914   -1.9570 C   0  0  0  0  0  0  0  0  0  0  0  0
    2.0595    0.8455   -2.5983 N   0  0  0  0  0  0  0  0  0  0  0  0
    1.4309   -0.4538   -2.9287 C   0  0  0  0  0  0  0  0  0  0  0  0
    1.4018   -1.3759   -1.6940 C   0  0  3  0  0  0  0  0  0  0  0  0
    2.7114   -1.5379   -1.1258 O   0  0  0  0  0  0  0  0  0  0  0  0
    0.8950   -2.7625   -2.0716 C   0  0  0  0  0  0  0  0  0  0  0  0
    1.8331    1.8986   -3.4406 C   0  0  0  0  0  0  0  0  0  0  0  0
    2.3713    3.1465   -3.6854 C   0  0  0  0  0  0  0  0  0  0  0  0
    1.6656    3.8003   -4.6714 N   0  0  0  0  0  0  0  0  0  0  0  0
    0.7030    2.9585   -5.0156 C   0  0  0  0  0  0  0  0  0  0  0  0
    0.7698    1.7832   -4.2969 O   0  0  0  0  0  0  0  0  0  0  0  0
   -0.3158    3.1637   -5.9853 C   0  0  0  0  0  0  0  0  0  0  0  0
   -0.4454    4.3321   -6.6335 C   0  0  0  0  0  0  0  0  0  0  0  0
   -1.4906    4.6003   -7.6324 C   0  0  0  0  0  0  0  0  0  0  0  0
   -2.7931    4.0875   -7.5086 C   0  0  0  0  0  0  0  0  0  0  0  0
   -3.7697    4.3844   -8.4625 C   0  0  0  0  0  0  0  0  0  0  0  0
   -3.4457    5.2134   -9.5379 C   0  0  0  0  0  0  0  0  0  0  0  0
   -2.1634    5.7451   -9.6622 C   0  0  0  0  0  0  0  0  0  0  0  0
   -1.1907    5.4430   -8.7097 C   0  0  0  0  0  0  0  0  0  0  0  0
   -5.0632    3.9392   -8.4543 O   0  0  0  0  0  0  0  0  0  0  0  0
   -5.4412    3.0662   -7.3973 C   0  0  0  0  0  0  0  0  0  0  0  0
    3.4871    3.7764   -3.0613 C   0  0  0  0  0  0  0  0  0  0  0  0
    4.4053    4.2629   -2.5414 N   0  0  0  0  0  0  0  0  0  0  0  0
    3.2290    1.1777    0.8384 H   0  0  0  0  0  0  0  0  0  0  0  0
    2.5530   -0.4121    1.2623 H   0  0  0  0  0  0  0  0  0  0  0  0
    1.6374    0.6942    0.2431 H   0  0  0  0  0  0  0  0  0  0  0  0
    4.3474   -0.5276   -0.4768 H   0  0  0  0  0  0  0  0  0  0  0  0
    4.0819    0.3002   -2.7043 H   0  0  0  0  0  0  0  0  0  0  0  0
    3.7686    1.6452   -1.5918 H   0  0  0  0  0  0  0  0  0  0  0  0
    2.0081   -0.9229   -3.7362 H   0  0  0  0  0  0  0  0  0  0  0  0
    0.3994   -0.3237   -3.2784 H   0  0  0  0  0  0  0  0  0  0  0  0
    0.7313   -0.9630   -0.9316 H   0  0  0  0  0  0  0  0  0  0  0  0
    1.5634   -3.2405   -2.7965 H   0  0  0  0  0  0  0  0  0  0  0  0
   -0.1113   -2.7157   -2.4990 H   0  0  0  0  0  0  0  0  0  0  0  0
    0.8706   -3.4127   -1.1905 H   0  0  0  0  0  0  0  0  0  0  0  0
   -0.9831    2.3307   -6.1727 H   0  0  0  0  0  0  0  0  0  0  0  0
    0.2502    5.1482   -6.4437 H   0  0  0  0  0  0  0  0  0  0  0  0
   -3.0337    3.4679   -6.6520 H   0  0  0  0  0  0  0  0  0  0  0  0
   -4.2025    5.4501  -10.2818 H   0  0  0  0  0  0  0  0  0  0  0  0
   -1.9240    6.3946  -10.5000 H   0  0  0  0  0  0  0  0  0  0  0  0
   -0.1947    5.8661   -8.8213 H   0  0  0  0  0  0  0  0  0  0  0  0
   -6.4891    2.7907   -7.5504 H   0  0  0  0  0  0  0  0  0  0  0  0
   -5.3671    3.5671   -6.4263 H   0  0  0  0  0  0  0  0  0  0  0  0
   -4.8491    2.1449   -7.4138 H   0  0  0  0  0  0  0  0  0  0  0  0
  1  2  1  0  0  0  0
  1 26  1  0  0  0  0
  1 27  1  0  0  0  0
  1 28  1  0  0  0  0
  2  3  1  0  0  0  0
  2  7  1  0  0  0  0
  2 29  1  0  0  0  0
  3  4  1  0  0  0  0
  3 30  1  0  0  0  0
  3 31  1  0  0  0  0
  4  5  1  0  0  0  0
  4  9  1  0  0  0  0
  5  6  1  0  0  0  0
  5 32  1  0  0  0  0
  5 33  1  0  0  0  0
  6  7  1  0  0  0  0
  6  8  1  0  0  0  0
  6 34  1  0  0  0  0
  8 35  1  0  0  0  0
  8 36  1  0  0  0  0
  8 37  1  0  0  0  0
  9 10  2  0  0  0  0
  9 13  1  0  0  0  0
 10 11  1  0  0  0  0
 10 24  1  0  0  0  0
 11 12  2  0  0  0  0
 12 13  1  0  0  0  0
 12 14  1  0  0  0  0
 14 15  2  0  0  0  0
 14 38  1  0  0  0  0
 15 16  1  0  0  0  0
 15 39  1  0  0  0  0
 16 17  2  0  0  0  0
 16 21  1  0  0  0  0
 17 18  1  0  0  0  0
 17 40  1  0  0  0  0
 18 19  2  0  0  0  0
 18 22  1  0  0  0  0
 19 20  1  0  0  0  0
 19 41  1  0  0  0  0
 20 21  2  0  0  0  0
 20 42  1  0  0  0  0
 21 43  1  0  0  0  0
 22 23  1  0  0  0  0
 23 44  1  0  0  0  0
 23 45  1  0  0  0  0
 23 46  1  0  0  0  0
 24 25  3  0  0  0  0
M  END
