
 OpenBabel10072619423D

 50 49  0  0  0  0  0  0  0  0999 V2000
    2.7097   -0.0990    1.8289 C   0  0  0  0  0  0  0  0  0  0  0  0
    2.4130    0.0095    0.3898 N   0  0  0  0  0  0  0  0  0  0  0  0
    1.1717   -0.6660   -0.0583 C   0  0  0  0  0  0  0  0  0  0  0  0
   -0.0989    0.1031    0.3115 C   0  0  0  0  0  0  0  0  0  0  0  0
   -1.2661   -0.5942   -0.1570 O   0  0  0  0  0  0  0  0  0  0  0  0
   -1.6865   -1.6108    0.6342 C   0  0  0  0  0  0  0  0  0  0  0  0
   -1.1583   -1.9964    1.6629 O   0  0  0  0  0  0  0  0  0  0  0  0
   -2.8991   -2.1882    0.0193 C   0  0  0  0  0  0  0  0  0  0  0  0
   -3.5472   -3.2019    0.6060 C   0  0  0  0  0  0  0  0  0  0  0  0
    2.9080    1.4147   -0.4218 S   0  0  0  0  0  0  0  0  0  0  0  0
    2.0582    1.5708   -1.5812 O   0  0  0  0  0  0  0  0  0  0  0  0
    3.0589    2.4561    0.5671 O   0  0  0  0  0  0  0  0  0  0  0  0
    4.5060    0.8943   -0.9745 C   0  0  0  0  0  0  0  0  0  0  0  0
    5.1830    2.0204   -1.7129 C   0  0  0  0  0  0  0  0  0  0  0  0
    6.4827    1.5406   -2.3454 C   0  0  0  0  0  0  0  0  0  0  0  0
    7.1670    2.5511   -3.2584 C   0  0  0  0  0  0  0  0  0  0  0  0
    7.6065    3.8780   -2.6557 C   0  0  0  0  0  0  0  0  0  0  0  0
    8.6059    3.8075   -1.5084 C   0  0  0  0  0  0  0  0  0  0  0  0
    9.9512    3.1360   -1.7627 C   0  0  0  0  0  0  0  0  0  0  0  0
   10.7771    3.7831   -2.8505 C   0  0  0  0  0  0  0  0  0  0  0  0
   12.1590    3.1592   -2.9014 C   0  0  0  0  0  0  0  0  0  0  0  0
   12.1100    1.8287   -3.1419 F   0  0  0  0  0  0  0  0  0  0  0  0
   12.9072    3.7075   -3.8912 F   0  0  0  0  0  0  0  0  0  0  0  0
   12.8490    3.3337   -1.7518 F   0  0  0  0  0  0  0  0  0  0  0  0
   10.1624    3.6328   -4.0551 F   0  0  0  0  0  0  0  0  0  0  0  0
   10.8704    5.1243   -2.6417 F   0  0  0  0  0  0  0  0  0  0  0  0
   10.6536    3.1596   -0.5885 F   0  0  0  0  0  0  0  0  0  0  0  0
    9.7606    1.8160   -2.0281 F   0  0  0  0  0  0  0  0  0  0  0  0
    8.8409    5.0800   -1.0598 F   0  0  0  0  0  0  0  0  0  0  0  0
    8.0029    3.1786   -0.4530 F   0  0  0  0  0  0  0  0  0  0  0  0
    8.1370    4.6612   -3.6427 F   0  0  0  0  0  0  0  0  0  0  0  0
    6.5020    4.5676   -2.2463 F   0  0  0  0  0  0  0  0  0  0  0  0
    8.2656    1.9540   -3.8172 F   0  0  0  0  0  0  0  0  0  0  0  0
    6.3441    2.8071   -4.3220 F   0  0  0  0  0  0  0  0  0  0  0  0
    7.3422    1.1200   -1.3762 F   0  0  0  0  0  0  0  0  0  0  0  0
    6.2161    0.4136   -3.0798 F   0  0  0  0  0  0  0  0  0  0  0  0
    4.3817    2.5300   -2.6752 F   0  0  0  0  0  0  0  0  0  0  0  0
    5.4601    3.0255   -0.8489 F   0  0  0  0  0  0  0  0  0  0  0  0
    2.5725   -1.1316    2.1654 H   0  0  0  0  0  0  0  0  0  0  0  0
    2.0496    0.5504    2.4115 H   0  0  0  0  0  0  0  0  0  0  0  0
    3.7513    0.1697    2.0283 H   0  0  0  0  0  0  0  0  0  0  0  0
    1.1459   -1.6762    0.3671 H   0  0  0  0  0  0  0  0  0  0  0  0
    1.2105   -0.8332   -1.1419 H   0  0  0  0  0  0  0  0  0  0  0  0
   -0.1118    1.0884   -0.1642 H   0  0  0  0  0  0  0  0  0  0  0  0
   -0.1688    0.2792    1.3917 H   0  0  0  0  0  0  0  0  0  0  0  0
   -3.2402   -1.7594   -0.9156 H   0  0  0  0  0  0  0  0  0  0  0  0
   -3.2053   -3.6272    1.5462 H   0  0  0  0  0  0  0  0  0  0  0  0
   -4.4395   -3.6240    0.1559 H   0  0  0  0  0  0  0  0  0  0  0  0
    4.3424    0.0271   -1.6212 H   0  0  0  0  0  0  0  0  0  0  0  0
    5.0840    0.6023   -0.0929 H   0  0  0  0  0  0  0  0  0  0  0  0
  1  2  1  0  0  0  0
  1 39  1  0  0  0  0
  1 40  1  0  0  0  0
  1 41  1  0  0  0  0
  2  3  1  0  0  0  0
  2 10  1  0  0  0  0
  3  4  1  0  0  0  0
  3 42  1  0  0  0  0
  3 43  1  0  0  0  0
  4  5  1  0  0  0  0
  4 44  1  0  0  0  0
  4 45  1  0  0  0  0
  5  6  1  0  0  0  0
  6  7  2  0  0  0  0
  6  8  1  0  0  0  0
  8  9  2  0  0  0  0
  8 46  1  0  0  0  0
  9 47  1  0  0  0  0
  9 48  1  0  0  0  0
 10 11  2  0  0  0  0
 10 12  2  0  0  0  0
 10 13  1  0  0  0  0
 13 14  1  0  0  0  0
 13 49  1  0  0  0  0
 13 50  1  0  0  0  0
 14 15  1  0  0  0  0
 14 37  1  0  0  0  0
 14 38  1  0  0  0  0
 15 16  1  0  0  0  0
 15 35  1  0  0  0  0
 15 36  1  0  0  0  0
 16 17  1  0  0  0  0
 16 33  1  0  0  0  0
 16 34  1  0  0  0  0
 17 18  1  0  0  0  0
 17 31  1  0  0  0  0
 17 32  1  0  0  0  0
 18 19  1  0  0  0  0
 18 29  1  0  0  0  0
 18 30  1  0  0  0  0
 19 20  1  0  0  0  0
 19 27  1  0  0  0  0
 19 28  1  0  0  0  0
 20 21  1  0  0  0  0
 20 25  1  0  0  0  0
 20 26  1  0  0  0  0
 21 22  1  0  0  0  0
 21 23  1  0  0  0  0
 21 24  1  0  0  0  0
M  END
