
 OpenBabel10072616323D

 31 32  0  0  0  0  0  0  0  0999 V2000
   -0.3102   -0.5072    0.4676 C   0  0  0  0  0  0  0  0  0  0  0  0
    0.0094    0.8471    0.3224 C   0  0  0  0  0  0  0  0  0  0  0  0
    1.3367    1.2494    0.1493 C   0  0  0  0  0  0  0  0  0  0  0  0
    2.3405    0.2741    0.1102 C   0  0  0  0  0  0  0  0  0  0  0  0
    2.0166   -1.0759    0.2563 C   0  0  0  0  0  0  0  0  0  0  0  0
    0.6946   -1.4715    0.4345 C   0  0  0  0  0  0  0  0  0  0  0  0
    3.2640   -2.2618    0.2124 Cl  0  0  0  0  0  0  0  0  0  0  0  0
    1.7322    2.5922   -0.0252 N   0  0  0  0  0  0  0  0  0  0  0  0
    0.9620    3.7290    0.1769 C   0  0  0  0  0  0  0  0  0  0  0  0
   -0.1517    3.7410    0.6828 O   0  0  0  0  0  0  0  0  0  0  0  0
    1.6435    4.8480   -0.2827 N   0  0  0  0  0  0  0  0  0  0  0  0
    1.2661    6.1984   -0.1380 C   0  0  0  0  0  0  0  0  0  0  0  0
    0.2388    6.6316    0.7008 C   0  0  0  0  0  0  0  0  0  0  0  0
   -0.0671    7.9937    0.8101 C   0  0  0  0  0  0  0  0  0  0  0  0
    0.6530    8.9494    0.0821 C   0  0  0  0  0  0  0  0  0  0  0  0
    1.6883    8.5136   -0.7563 C   0  0  0  0  0  0  0  0  0  0  0  0
    1.9937    7.1521   -0.8605 C   0  0  0  0  0  0  0  0  0  0  0  0
    0.3309   10.4197    0.1846 C   0  0  0  0  0  0  0  0  0  0  0  0
   -0.6541   10.7051    1.0808 F   0  0  0  0  0  0  0  0  0  0  0  0
    1.4082   11.1613    0.5661 F   0  0  0  0  0  0  0  0  0  0  0  0
   -0.0800   10.9445   -1.0032 F   0  0  0  0  0  0  0  0  0  0  0  0
   -1.3476   -0.8043    0.6028 H   0  0  0  0  0  0  0  0  0  0  0  0
   -0.8055    1.5655    0.3374 H   0  0  0  0  0  0  0  0  0  0  0  0
    3.3802    0.5547   -0.0299 H   0  0  0  0  0  0  0  0  0  0  0  0
    0.4404   -2.5218    0.5460 H   0  0  0  0  0  0  0  0  0  0  0  0
    2.7213    2.7555   -0.1401 H   0  0  0  0  0  0  0  0  0  0  0  0
    2.4002    4.6651   -0.9242 H   0  0  0  0  0  0  0  0  0  0  0  0
   -0.3419    5.9325    1.2956 H   0  0  0  0  0  0  0  0  0  0  0  0
   -0.8751    8.2983    1.4747 H   0  0  0  0  0  0  0  0  0  0  0  0
    2.2626    9.2372   -1.3341 H   0  0  0  0  0  0  0  0  0  0  0  0
    2.8051    6.8534   -1.5194 H   0  0  0  0  0  0  0  0  0  0  0  0
  1  2  2  0  0  0  0
  1  6  1  0  0  0  0
  1 22  1  0  0  0  0
  2  3  1  0  0  0  0
  2 23  1  0  0  0  0
  3  4  2  0  0  0  0
  3  8  1  0  0  0  0
  4  5  1  0  0  0  0
  4 24  1  0  0  0  0
  5  6  2  0  0  0  0
  5  7  1  0  0  0  0
  6 25  1  0  0  0  0
  8  9  1  0  0  0  0
  8 26  1  0  0  0  0
  9 10  2  0  0  0  0
  9 11  1  0  0  0  0
 11 12  1  0  0  0  0
 11 27  1  0  0  0  0
 12 13  2  0  0  0  0
 12 17  1  0  0  0  0
 13 14  1  0  0  0  0
 13 28  1  0  0  0  0
 14 15  2  0  0  0  0
 14 29  1  0  0  0  0
 15 16  1  0  0  0  0
 15 18  1  0  0  0  0
 16 17  2  0  0  0  0
 16 30  1  0  0  0  0
 17 31  1  0  0  0  0
 18 19  1  0  0  0  0
 18 20  1  0  0  0  0
 18 21  1  0  0  0  0
M  END
