
 OpenBabel10072616333D

 47 49  0  0  0  0  0  0  0  0999 V2000
    1.6441   -0.5308    0.3841 C   0  0  0  0  0  0  0  0  0  0  0  0
    0.9055    0.2497    1.2696 C   0  0  0  0  0  0  0  0  0  0  0  0
   -0.4512    0.4875    1.0337 C   0  0  0  0  0  0  0  0  0  0  0  0
   -1.0961   -0.0595   -0.0902 C   0  0  0  0  0  0  0  0  0  0  0  0
   -0.3292   -0.8365   -0.9757 C   0  0  0  0  0  0  0  0  0  0  0  0
    1.0281   -1.0695   -0.7416 C   0  0  0  0  0  0  0  0  0  0  0  0
   -2.5845    0.2332   -0.3202 C   0  0  0  0  0  0  0  0  0  0  0  0
   -2.7744    1.3227   -1.4200 C   0  0  0  0  0  0  0  0  0  0  0  0
   -2.4224    0.9491   -2.8635 C   0  0  0  0  0  0  0  0  0  0  0  0
   -3.1940   -0.1798   -3.3621 N   0  0  0  0  0  0  0  0  0  0  0  0
   -4.3222   -0.1804   -4.1678 C   0  0  0  0  0  0  0  0  0  0  0  0
   -4.9803    1.1859   -4.8620 S   0  0  0  0  0  0  0  0  0  0  0  0
   -4.8171   -1.4763   -4.2346 N   0  0  0  0  0  0  0  0  0  0  0  0
   -5.6948   -2.1014   -5.1455 C   0  0  0  0  0  0  0  0  0  0  0  0
   -5.9260   -1.6560   -6.4473 C   0  0  0  0  0  0  0  0  0  0  0  0
   -6.7874   -2.3699   -7.2859 C   0  0  0  0  0  0  0  0  0  0  0  0
   -7.4173   -3.5317   -6.8438 C   0  0  0  0  0  0  0  0  0  0  0  0
   -7.1683   -3.9984   -5.5567 C   0  0  0  0  0  0  0  0  0  0  0  0
   -6.3024   -3.2922   -4.7174 C   0  0  0  0  0  0  0  0  0  0  0  0
   -7.0636   -1.8207   -8.8946 Cl  0  0  0  0  0  0  0  0  0  0  0  0
   -3.5355   -0.9735   -0.4097 C   0  0  0  0  0  0  0  0  0  0  0  0
   -3.1243   -2.3020   -0.2118 C   0  0  0  0  0  0  0  0  0  0  0  0
   -4.0281   -3.3683   -0.3070 C   0  0  0  0  0  0  0  0  0  0  0  0
   -5.3744   -3.1264   -0.5570 C   0  0  0  0  0  0  0  0  0  0  0  0
   -5.8201   -1.8185   -0.7001 C   0  0  0  0  0  0  0  0  0  0  0  0
   -4.9118   -0.7568   -0.6234 C   0  0  0  0  0  0  0  0  0  0  0  0
    2.6989   -0.7166    0.5687 H   0  0  0  0  0  0  0  0  0  0  0  0
    1.3855    0.6786    2.1455 H   0  0  0  0  0  0  0  0  0  0  0  0
   -1.0004    1.1091    1.7389 H   0  0  0  0  0  0  0  0  0  0  0  0
   -0.7824   -1.2860   -1.8552 H   0  0  0  0  0  0  0  0  0  0  0  0
    1.6042   -1.6728   -1.4388 H   0  0  0  0  0  0  0  0  0  0  0  0
   -2.9239    0.7255    0.6057 H   0  0  0  0  0  0  0  0  0  0  0  0
   -2.1571    2.1903   -1.1501 H   0  0  0  0  0  0  0  0  0  0  0  0
   -3.8084    1.6890   -1.4003 H   0  0  0  0  0  0  0  0  0  0  0  0
   -1.3667    0.6812   -2.9576 H   0  0  0  0  0  0  0  0  0  0  0  0
   -2.5756    1.8229   -3.5044 H   0  0  0  0  0  0  0  0  0  0  0  0
   -2.8550   -1.0923   -3.0925 H   0  0  0  0  0  0  0  0  0  0  0  0
   -4.6457   -1.9990   -3.3839 H   0  0  0  0  0  0  0  0  0  0  0  0
   -5.4193   -0.7843   -6.8463 H   0  0  0  0  0  0  0  0  0  0  0  0
   -8.0889   -4.0793   -7.5007 H   0  0  0  0  0  0  0  0  0  0  0  0
   -7.6424   -4.9122   -5.2069 H   0  0  0  0  0  0  0  0  0  0  0  0
   -6.1228   -3.6767   -3.7157 H   0  0  0  0  0  0  0  0  0  0  0  0
   -2.0947   -2.5419    0.0414 H   0  0  0  0  0  0  0  0  0  0  0  0
   -3.6781   -4.3878   -0.1600 H   0  0  0  0  0  0  0  0  0  0  0  0
   -6.0789   -3.9531   -0.6061 H   0  0  0  0  0  0  0  0  0  0  0  0
   -6.8764   -1.6150   -0.8619 H   0  0  0  0  0  0  0  0  0  0  0  0
   -5.3065    0.2516   -0.7288 H   0  0  0  0  0  0  0  0  0  0  0  0
  1  2  2  0  0  0  0
  1  6  1  0  0  0  0
  1 27  1  0  0  0  0
  2  3  1  0  0  0  0
  2 28  1  0  0  0  0
  3  4  2  0  0  0  0
  3 29  1  0  0  0  0
  4  5  1  0  0  0  0
  4  7  1  0  0  0  0
  5  6  2  0  0  0  0
  5 30  1  0  0  0  0
  6 31  1  0  0  0  0
  7  8  1  0  0  0  0
  7 21  1  0  0  0  0
  7 32  1  0  0  0  0
  8  9  1  0  0  0  0
  8 33  1  0  0  0  0
  8 34  1  0  0  0  0
  9 10  1  0  0  0  0
  9 35  1  0  0  0  0
  9 36  1  0  0  0  0
 10 11  1  0  0  0  0
 10 37  1  0  0  0  0
 11 12  2  0  0  0  0
 11 13  1  0  0  0  0
 13 14  1  0  0  0  0
 13 38  1  0  0  0  0
 14 15  2  0  0  0  0
 14 19  1  0  0  0  0
 15 16  1  0  0  0  0
 15 39  1  0  0  0  0
 16 17  2  0  0  0  0
 16 20  1  0  0  0  0
 17 18  1  0  0  0  0
 17 40  1  0  0  0  0
 18 19  2  0  0  0  0
 18 41  1  0  0  0  0
 19 42  1  0  0  0  0
 21 22  2  0  0  0  0
 21 26  1  0  0  0  0
 22 23  1  0  0  0  0
 22 43  1  0  0  0  0
 23 24  2  0  0  0  0
 23 44  1  0  0  0  0
 24 25  1  0  0  0  0
 24 45  1  0  0  0  0
 25 26  2  0  0  0  0
 25 46  1  0  0  0  0
 26 47  1  0  0  0  0
M  END
