
 OpenBabel10072620203D

 35 36  0  0  0  0  0  0  0  0999 V2000
    0.8977    3.0771   -0.5323 C   0  0  0  0  0  0  0  0  0  0  0  0
    1.2477    1.6180   -0.4472 C   0  0  0  0  0  0  0  0  0  0  0  0
    0.2759    0.6095   -0.5146 C   0  0  0  0  0  0  0  0  0  0  0  0
    0.6463   -0.7346   -0.4395 C   0  0  0  0  0  0  0  0  0  0  0  0
    1.9913   -1.0911   -0.3019 C   0  0  0  0  0  0  0  0  0  0  0  0
    2.9770   -0.1074   -0.2392 C   0  0  0  0  0  0  0  0  0  0  0  0
    2.5963    1.2407   -0.3044 C   0  0  0  0  0  0  0  0  0  0  0  0
    4.3504   -0.3856   -0.0800 N   0  0  0  0  0  0  0  0  0  0  0  0
    4.9792   -1.6151   -0.2209 C   0  0  0  0  0  0  0  0  0  0  0  0
    4.4485   -2.6300   -0.6512 O   0  0  0  0  0  0  0  0  0  0  0  0
    6.2979   -1.5202    0.1996 N   0  0  0  0  0  0  0  0  0  0  0  0
    7.3039   -2.5013    0.0949 C   0  0  0  0  0  0  0  0  0  0  0  0
    7.1878   -3.6610   -0.6716 C   0  0  0  0  0  0  0  0  0  0  0  0
    8.2407   -4.5846   -0.7377 C   0  0  0  0  0  0  0  0  0  0  0  0
    9.4256   -4.3538   -0.0411 C   0  0  0  0  0  0  0  0  0  0  0  0
    9.5478   -3.1903    0.7181 C   0  0  0  0  0  0  0  0  0  0  0  0
    8.4986   -2.2696    0.7845 C   0  0  0  0  0  0  0  0  0  0  0  0
   10.5231   -5.1679   -0.0242 O   0  0  0  0  0  0  0  0  0  0  0  0
   10.4449   -6.3677   -0.7844 C   0  0  0  0  0  0  0  0  0  0  0  0
   -1.5720    1.0037   -0.7058 Br  0  0  0  0  0  0  0  0  0  0  0  0
    0.4468    3.3028   -1.5041 H   0  0  0  0  0  0  0  0  0  0  0  0
    1.7855    3.7103   -0.4277 H   0  0  0  0  0  0  0  0  0  0  0  0
    0.2068    3.3531    0.2706 H   0  0  0  0  0  0  0  0  0  0  0  0
   -0.1038   -1.5207   -0.4838 H   0  0  0  0  0  0  0  0  0  0  0  0
    2.2342   -2.1476   -0.2363 H   0  0  0  0  0  0  0  0  0  0  0  0
    3.3559    2.0179   -0.2519 H   0  0  0  0  0  0  0  0  0  0  0  0
    4.9660    0.4124   -0.0403 H   0  0  0  0  0  0  0  0  0  0  0  0
    6.5083   -0.7340    0.7948 H   0  0  0  0  0  0  0  0  0  0  0  0
    6.2893   -3.8766   -1.2424 H   0  0  0  0  0  0  0  0  0  0  0  0
    8.0981   -5.4698   -1.3483 H   0  0  0  0  0  0  0  0  0  0  0  0
   10.4691   -2.9988    1.2636 H   0  0  0  0  0  0  0  0  0  0  0  0
    8.6330   -1.3753    1.3857 H   0  0  0  0  0  0  0  0  0  0  0  0
   11.3880   -6.9084   -0.6561 H   0  0  0  0  0  0  0  0  0  0  0  0
   10.3286   -6.1509   -1.8514 H   0  0  0  0  0  0  0  0  0  0  0  0
    9.6390   -7.0139   -0.4211 H   0  0  0  0  0  0  0  0  0  0  0  0
  1  2  1  0  0  0  0
  1 21  1  0  0  0  0
  1 22  1  0  0  0  0
  1 23  1  0  0  0  0
  2  3  2  0  0  0  0
  2  7  1  0  0  0  0
  3  4  1  0  0  0  0
  3 20  1  0  0  0  0
  4  5  2  0  0  0  0
  4 24  1  0  0  0  0
  5  6  1  0  0  0  0
  5 25  1  0  0  0  0
  6  7  2  0  0  0  0
  6  8  1  0  0  0  0
  7 26  1  0  0  0  0
  8  9  1  0  0  0  0
  8 27  1  0  0  0  0
  9 10  2  0  0  0  0
  9 11  1  0  0  0  0
 11 12  1  0  0  0  0
 11 28  1  0  0  0  0
 12 13  2  0  0  0  0
 12 17  1  0  0  0  0
 13 14  1  0  0  0  0
 13 29  1  0  0  0  0
 14 15  2  0  0  0  0
 14 30  1  0  0  0  0
 15 16  1  0  0  0  0
 15 18  1  0  0  0  0
 16 17  2  0  0  0  0
 16 31  1  0  0  0  0
 17 32  1  0  0  0  0
 18 19  1  0  0  0  0
 19 33  1  0  0  0  0
 19 34  1  0  0  0  0
 19 35  1  0  0  0  0
M  END
