
 OpenBabel10072616273D

 35 37  0  0  1  0  0  0  0  0999 V2000
   -0.7518    1.1055    1.2054 C   0  0  0  0  0  0  0  0  0  0  0  0
   -1.5147    0.3785    0.0856 C   0  0  3  0  0  0  0  0  0  0  0  0
   -0.9422    0.8013   -1.2765 C   0  0  0  0  0  0  0  0  0  0  0  0
    0.5511    0.4469   -1.3511 C   0  0  3  0  0  0  0  0  0  0  0  0
    1.3053    1.1730   -0.2258 C   0  0  0  0  0  0  0  0  0  0  0  0
    0.7431    0.7514    1.1412 C   0  0  3  0  0  0  0  0  0  0  0  0
    0.9122   -0.7689    1.3145 C   0  0  0  0  0  0  0  0  0  0  0  0
    0.1555   -1.5335    0.1985 C   0  0  3  0  0  0  0  0  0  0  0  0
   -1.3431   -1.1414    0.2612 C   0  0  0  0  0  0  0  0  0  0  0  0
    0.7184   -1.0709   -1.1727 C   0  0  0  0  0  0  0  0  0  0  0  0
    0.3555   -3.0577    0.3252 C   0  0  0  0  0  0  0  0  0  0  0  0
   -0.0853   -3.6070    1.5929 N   0  0  0  0  0  0  0  0  0  0  0  0
    0.3120   -4.8610    1.9587 C   0  0  0  0  0  0  0  0  0  0  0  0
    1.0977   -5.5737    1.3549 O   0  0  0  0  0  0  0  0  0  0  0  0
   -0.2753   -5.2597    3.1154 N   0  0  0  0  0  0  0  0  0  0  0  0
   -1.1621    0.8232    2.1828 H   0  0  0  0  0  0  0  0  0  0  0  0
   -0.8843    2.1899    1.1057 H   0  0  0  0  0  0  0  0  0  0  0  0
   -2.5782    0.6377    0.1350 H   0  0  0  0  0  0  0  0  0  0  0  0
   -1.0794    1.8798   -1.4227 H   0  0  0  0  0  0  0  0  0  0  0  0
   -1.4878    0.2988   -2.0846 H   0  0  0  0  0  0  0  0  0  0  0  0
    0.9551    0.7516   -2.3230 H   0  0  0  0  0  0  0  0  0  0  0  0
    1.2110    2.2587   -0.3513 H   0  0  0  0  0  0  0  0  0  0  0  0
    2.3755    0.9382   -0.2793 H   0  0  0  0  0  0  0  0  0  0  0  0
    1.2813    1.2753    1.9390 H   0  0  0  0  0  0  0  0  0  0  0  0
    0.5380   -1.0618    2.3035 H   0  0  0  0  0  0  0  0  0  0  0  0
    1.9790   -1.0257    1.2920 H   0  0  0  0  0  0  0  0  0  0  0  0
   -1.7824   -1.4391    1.2210 H   0  0  0  0  0  0  0  0  0  0  0  0
   -1.9048   -1.6686   -0.5204 H   0  0  0  0  0  0  0  0  0  0  0  0
    0.2041   -1.5953   -1.9886 H   0  0  0  0  0  0  0  0  0  0  0  0
    1.7815   -1.3330   -1.2530 H   0  0  0  0  0  0  0  0  0  0  0  0
    1.4159   -3.3086    0.1952 H   0  0  0  0  0  0  0  0  0  0  0  0
   -0.1969   -3.5852   -0.4625 H   0  0  0  0  0  0  0  0  0  0  0  0
   -1.0296   -3.3966    1.8813 H   0  0  0  0  0  0  0  0  0  0  0  0
   -0.3821   -4.5467    3.8222 H   0  0  0  0  0  0  0  0  0  0  0  0
    0.0995   -6.1354    3.4597 H   0  0  0  0  0  0  0  0  0  0  0  0
  1  2  1  0  0  0  0
  1  6  1  0  0  0  0
  1 16  1  0  0  0  0
  1 17  1  0  0  0  0
  2  3  1  0  0  0  0
  2  9  1  0  0  0  0
  2 18  1  0  0  0  0
  3  4  1  0  0  0  0
  3 19  1  0  0  0  0
  3 20  1  0  0  0  0
  4  5  1  0  0  0  0
  4 10  1  0  0  0  0
  4 21  1  0  0  0  0
  5  6  1  0  0  0  0
  5 22  1  0  0  0  0
  5 23  1  0  0  0  0
  6  7  1  0  0  0  0
  6 24  1  0  0  0  0
  7  8  1  0  0  0  0
  7 25  1  0  0  0  0
  7 26  1  0  0  0  0
  8  9  1  0  0  0  0
  8 10  1  0  0  0  0
  8 11  1  0  0  0  0
  9 27  1  0  0  0  0
  9 28  1  0  0  0  0
 10 29  1  0  0  0  0
 10 30  1  0  0  0  0
 11 12  1  0  0  0  0
 11 31  1  0  0  0  0
 11 32  1  0  0  0  0
 12 13  1  0  0  0  0
 12 33  1  0  0  0  0
 13 14  2  0  0  0  0
 13 15  1  0  0  0  0
 15 34  1  0  0  0  0
 15 35  1  0  0  0  0
M  END
