
 OpenBabel10072620013D

 71 73  0  0  1  0  0  0  0  0999 V2000
    2.2051   -0.1267   -1.6662 C   0  0  0  0  0  0  0  0  0  0  0  0
    0.7658   -0.1083   -1.2441 C   0  0  0  0  0  0  0  0  0  0  0  0
    0.3436    0.7022   -0.1805 C   0  0  0  0  0  0  0  0  0  0  0  0
   -0.9884    0.6812    0.2404 C   0  0  0  0  0  0  0  0  0  0  0  0
   -1.8993   -0.1602   -0.4056 C   0  0  0  0  0  0  0  0  0  0  0  0
   -1.4801   -1.0033   -1.4373 C   0  0  0  0  0  0  0  0  0  0  0  0
   -0.1517   -0.9682   -1.8604 C   0  0  0  0  0  0  0  0  0  0  0  0
   -3.5963   -0.1784    0.1243 S   0  0  0  0  0  0  0  0  0  0  0  0
   -4.3343   -1.1210   -0.6857 O   0  0  0  0  0  0  0  0  0  0  0  0
   -3.5550   -0.3098    1.5641 O   0  0  0  0  0  0  0  0  0  0  0  0
   -4.1656    1.3999   -0.2599 N   0  0  0  0  0  0  0  0  0  0  0  0
   -3.8557    1.9248   -1.6648 C   0  0  0  0  0  0  0  0  0  0  0  0
   -4.1014    1.0117   -2.8796 C   0  0  0  0  0  0  0  0  0  0  0  0
   -5.5761    0.7650   -3.1864 C   0  0  0  0  0  0  0  0  0  0  0  0
   -3.4302    1.6341   -4.1140 C   0  0  0  0  0  0  0  0  0  0  0  0
   -5.6043    1.7422    0.1722 C   0  0  1  0  0  0  0  0  0  0  0  0
   -6.1148    1.1291    1.4930 C   0  0  0  0  0  0  0  0  0  0  0  0
   -5.5043    1.7115    2.7822 C   0  0  0  0  0  0  0  0  0  0  0  0
   -6.0503    1.0743    4.0650 C   0  0  0  0  0  0  0  0  0  0  0  0
   -5.6120   -0.3725    4.2732 C   0  0  0  0  0  0  0  0  0  0  0  0
   -6.1076   -0.8921    5.5340 N   0  0  0  0  0  0  0  0  0  0  0  0
   -7.3415   -1.4904    5.6450 C   0  0  0  0  0  0  0  0  0  0  0  0
   -8.1368   -1.6070    4.7206 O   0  0  0  0  0  0  0  0  0  0  0  0
   -7.6237   -2.0343    7.0041 C   0  0  3  0  0  0  0  0  0  0  0  0
   -8.6840   -3.0937    7.1797 C   0  0  0  0  0  0  0  0  0  0  0  0
   -8.8752   -1.7297    7.8033 C   0  0  3  0  0  0  0  0  0  0  0  0
  -10.0085   -0.8537    7.3247 C   0  0  0  0  0  0  0  0  0  0  0  0
  -11.3323   -1.3310    7.3180 C   0  0  0  0  0  0  0  0  0  0  0  0
  -12.4020   -0.5234    6.9241 C   0  0  0  0  0  0  0  0  0  0  0  0
  -12.1700    0.7903    6.5322 C   0  0  0  0  0  0  0  0  0  0  0  0
  -10.8716    1.2925    6.5386 C   0  0  0  0  0  0  0  0  0  0  0  0
   -9.8055    0.4795    6.9363 C   0  0  0  0  0  0  0  0  0  0  0  0
   -5.7137    3.2682    0.2956 C   0  0  0  0  0  0  0  0  0  0  0  0
   -6.7459    3.9099    0.1831 O   0  0  0  0  0  0  0  0  0  0  0  0
   -4.5167    3.8446    0.5934 O   0  0  0  0  0  0  0  0  0  0  0  0
    2.6771    0.8465   -1.5010 H   0  0  0  0  0  0  0  0  0  0  0  0
    2.2920   -0.3555   -2.7332 H   0  0  0  0  0  0  0  0  0  0  0  0
    2.7465   -0.8872   -1.0958 H   0  0  0  0  0  0  0  0  0  0  0  0
    1.0555    1.3497    0.3289 H   0  0  0  0  0  0  0  0  0  0  0  0
   -1.3022    1.3093    1.0711 H   0  0  0  0  0  0  0  0  0  0  0  0
   -2.1742   -1.6868   -1.9216 H   0  0  0  0  0  0  0  0  0  0  0  0
    0.1679   -1.6215   -2.6710 H   0  0  0  0  0  0  0  0  0  0  0  0
   -2.7965    2.2143   -1.6373 H   0  0  0  0  0  0  0  0  0  0  0  0
   -4.3930    2.8664   -1.8310 H   0  0  0  0  0  0  0  0  0  0  0  0
   -3.6263    0.0421   -2.7420 H   0  0  0  0  0  0  0  0  0  0  0  0
   -6.1224    1.7036   -3.3176 H   0  0  0  0  0  0  0  0  0  0  0  0
   -6.0579    0.1880   -2.3948 H   0  0  0  0  0  0  0  0  0  0  0  0
   -5.6846    0.1848   -4.1094 H   0  0  0  0  0  0  0  0  0  0  0  0
   -3.8671    2.6070   -4.3611 H   0  0  0  0  0  0  0  0  0  0  0  0
   -3.5400    0.9836   -4.9883 H   0  0  0  0  0  0  0  0  0  0  0  0
   -2.3573    1.7786   -3.9458 H   0  0  0  0  0  0  0  0  0  0  0  0
   -6.2763    1.4390   -0.6350 H   0  0  0  0  0  0  0  0  0  0  0  0
   -6.0230    0.0402    1.4678 H   0  0  0  0  0  0  0  0  0  0  0  0
   -7.1972    1.3156    1.5410 H   0  0  0  0  0  0  0  0  0  0  0  0
   -5.7414    2.7798    2.8411 H   0  0  0  0  0  0  0  0  0  0  0  0
   -4.4126    1.6466    2.7695 H   0  0  0  0  0  0  0  0  0  0  0  0
   -7.1451    1.1432    4.0759 H   0  0  0  0  0  0  0  0  0  0  0  0
   -5.7011    1.6693    4.9198 H   0  0  0  0  0  0  0  0  0  0  0  0
   -4.5200   -0.4424    4.3114 H   0  0  0  0  0  0  0  0  0  0  0  0
   -5.9697   -1.0186    3.4658 H   0  0  0  0  0  0  0  0  0  0  0  0
   -5.5230   -0.8034    6.3532 H   0  0  0  0  0  0  0  0  0  0  0  0
   -6.7266   -2.1910    7.6004 H   0  0  0  0  0  0  0  0  0  0  0  0
   -8.4640   -3.9280    7.8359 H   0  0  0  0  0  0  0  0  0  0  0  0
   -9.2794   -3.3622    6.3112 H   0  0  0  0  0  0  0  0  0  0  0  0
   -8.7239   -1.6847    8.8814 H   0  0  0  0  0  0  0  0  0  0  0  0
  -11.5332   -2.3545    7.6275 H   0  0  0  0  0  0  0  0  0  0  0  0
  -13.4118   -0.9241    6.9225 H   0  0  0  0  0  0  0  0  0  0  0  0
  -12.9978    1.4198    6.2184 H   0  0  0  0  0  0  0  0  0  0  0  0
  -10.6849    2.3171    6.2303 H   0  0  0  0  0  0  0  0  0  0  0  0
   -8.8005    0.8941    6.9374 H   0  0  0  0  0  0  0  0  0  0  0  0
   -3.8397    3.1316    0.6348 H   0  0  0  0  0  0  0  0  0  0  0  0
  1  2  1  0  0  0  0
  1 36  1  0  0  0  0
  1 37  1  0  0  0  0
  1 38  1  0  0  0  0
  2  3  2  0  0  0  0
  2  7  1  0  0  0  0
  3  4  1  0  0  0  0
  3 39  1  0  0  0  0
  4  5  2  0  0  0  0
  4 40  1  0  0  0  0
  5  6  1  0  0  0  0
  5  8  1  0  0  0  0
  6  7  2  0  0  0  0
  6 41  1  0  0  0  0
  7 42  1  0  0  0  0
  8  9  2  0  0  0  0
  8 10  2  0  0  0  0
  8 11  1  0  0  0  0
 11 12  1  0  0  0  0
 11 16  1  0  0  0  0
 12 13  1  0  0  0  0
 12 43  1  0  0  0  0
 12 44  1  0  0  0  0
 13 14  1  0  0  0  0
 13 15  1  0  0  0  0
 13 45  1  0  0  0  0
 14 46  1  0  0  0  0
 14 47  1  0  0  0  0
 14 48  1  0  0  0  0
 15 49  1  0  0  0  0
 15 50  1  0  0  0  0
 15 51  1  0  0  0  0
 16 17  1  0  0  0  0
 16 33  1  0  0  0  0
 16 52  1  6  0  0  0
 17 18  1  0  0  0  0
 17 53  1  0  0  0  0
 17 54  1  0  0  0  0
 18 19  1  0  0  0  0
 18 55  1  0  0  0  0
 18 56  1  0  0  0  0
 19 20  1  0  0  0  0
 19 57  1  0  0  0  0
 19 58  1  0  0  0  0
 20 21  1  0  0  0  0
 20 59  1  0  0  0  0
 20 60  1  0  0  0  0
 21 22  1  0  0  0  0
 21 61  1  0  0  0  0
 22 23  2  0  0  0  0
 22 24  1  0  0  0  0
 24 25  1  0  0  0  0
 24 26  1  0  0  0  0
 24 62  1  0  0  0  0
 25 26  1  0  0  0  0
 25 63  1  0  0  0  0
 25 64  1  0  0  0  0
 26 27  1  0  0  0  0
 26 65  1  0  0  0  0
 27 28  2  0  0  0  0
 27 32  1  0  0  0  0
 28 29  1  0  0  0  0
 28 66  1  0  0  0  0
 29 30  2  0  0  0  0
 29 67  1  0  0  0  0
 30 31  1  0  0  0  0
 30 68  1  0  0  0  0
 31 32  2  0  0  0  0
 31 69  1  0  0  0  0
 32 70  1  0  0  0  0
 33 34  2  0  0  0  0
 33 35  1  0  0  0  0
 35 71  1  0  0  0  0
M  END
