
 OpenBabel10072616403D

104108  0  0  1  0  0  0  0  0999 V2000
   -3.4349    3.1539    3.5202 C   0  0  0  0  0  0  0  0  0  0  0  0
   -2.8780    1.9492    3.9516 C   0  0  0  0  0  0  0  0  0  0  0  0
   -2.3958    1.0285    3.0209 C   0  0  0  0  0  0  0  0  0  0  0  0
   -2.4816    1.2926    1.6487 C   0  0  0  0  0  0  0  0  0  0  0  0
   -3.0440    2.5061    1.2241 C   0  0  0  0  0  0  0  0  0  0  0  0
   -3.5105    3.4343    2.1576 C   0  0  0  0  0  0  0  0  0  0  0  0
   -1.9920    0.2734    0.6423 C   0  0  0  0  0  0  0  0  0  0  0  0
   -3.0981   -0.6541    0.0707 C   0  0  2  0  0  0  0  0  0  0  0  0
   -3.6596   -1.5180    1.2557 C   0  0  1  0  0  0  0  0  0  0  0  0
   -4.8799   -2.3906    0.9056 C   0  0  2  0  0  0  0  0  0  0  0  0
   -4.4501   -3.7670    0.3283 C   0  0  2  0  0  0  0  0  0  0  0  0
   -3.2611   -3.6077   -0.5466 N   0  0  0  0  0  0  0  0  0  0  0  0
   -3.3854   -2.5878   -1.4830 C   0  0  0  0  0  0  0  0  0  0  0  0
   -4.0297   -2.7413   -2.5297 O   0  0  0  0  0  0  0  0  0  0  0  0
   -2.6466   -1.4259   -1.1590 N   0  0  0  0  0  0  0  0  0  0  0  0
   -2.3686   -0.6253   -2.3774 C   0  0  0  0  0  0  0  0  0  0  0  0
   -1.0277    0.1182   -2.4960 C   0  0  0  0  0  0  0  0  0  0  0  0
    0.2284   -0.6678   -2.0936 C   0  0  0  0  0  0  0  0  0  0  0  0
    1.4654    0.2329   -2.2274 C   0  0  0  0  0  0  0  0  0  0  0  0
    2.7860   -0.4798   -1.9427 C   0  0  0  0  0  0  0  0  0  0  0  0
    3.8919    0.4543   -2.0846 N   0  0  0  0  0  0  0  0  0  0  0  0
    5.1605    0.0538   -2.4503 C   0  0  0  0  0  0  0  0  0  0  0  0
    5.4779   -1.1136   -2.6485 O   0  0  0  0  0  0  0  0  0  0  0  0
    6.1753    1.1415   -2.5752 C   0  0  0  0  0  0  0  0  0  0  0  0
    5.8054    2.4449   -2.9302 C   0  0  0  0  0  0  0  0  0  0  0  0
    6.7818    3.4315   -3.0278 C   0  0  0  0  0  0  0  0  0  0  0  0
    8.1204    3.1507   -2.7826 C   0  0  0  0  0  0  0  0  0  0  0  0
    8.5004    1.8480   -2.4590 C   0  0  0  0  0  0  0  0  0  0  0  0
    7.5294    0.8438   -2.3653 C   0  0  0  0  0  0  0  0  0  0  0  0
    6.4211    4.6797   -3.3577 F   0  0  0  0  0  0  0  0  0  0  0  0
   -2.7084   -4.8621   -1.0764 C   0  0  0  0  0  0  0  0  0  0  0  0
   -1.2309   -4.7315   -1.4519 C   0  0  0  0  0  0  0  0  0  0  0  0
   -0.6715   -6.0365   -2.0248 C   0  0  0  0  0  0  0  0  0  0  0  0
    0.8251   -5.9047   -2.3119 C   0  0  0  0  0  0  0  0  0  0  0  0
    1.4109   -7.1695   -2.9329 C   0  0  0  0  0  0  0  0  0  0  0  0
    2.8382   -7.0302   -3.1524 N   0  0  0  0  0  0  0  0  0  0  0  0
    3.5776   -8.0826   -3.6556 C   0  0  0  0  0  0  0  0  0  0  0  0
    3.1090   -9.1866   -3.8944 O   0  0  0  0  0  0  0  0  0  0  0  0
    5.0097   -7.7967   -3.9458 C   0  0  0  0  0  0  0  0  0  0  0  0
    5.7447   -6.8815   -3.1856 C   0  0  0  0  0  0  0  0  0  0  0  0
    7.0851   -6.6699   -3.4902 C   0  0  0  0  0  0  0  0  0  0  0  0
    7.7067   -7.3478   -4.5340 C   0  0  0  0  0  0  0  0  0  0  0  0
    6.9785   -8.2665   -5.2878 C   0  0  0  0  0  0  0  0  0  0  0  0
    5.6332   -8.4960   -4.9896 C   0  0  0  0  0  0  0  0  0  0  0  0
    7.7954   -5.8037   -2.7559 F   0  0  0  0  0  0  0  0  0  0  0  0
   -5.6395   -4.5355   -0.3084 C   0  0  0  0  0  0  0  0  0  0  0  0
   -6.7045   -4.8924    0.7092 C   0  0  0  0  0  0  0  0  0  0  0  0
   -7.8078   -4.0513    0.9121 C   0  0  0  0  0  0  0  0  0  0  0  0
   -8.7319   -4.3186    1.9233 C   0  0  0  0  0  0  0  0  0  0  0  0
   -8.5746   -5.4422    2.7305 C   0  0  0  0  0  0  0  0  0  0  0  0
   -7.4992   -6.3034    2.5216 C   0  0  0  0  0  0  0  0  0  0  0  0
   -6.5680   -6.0307    1.5161 C   0  0  0  0  0  0  0  0  0  0  0  0
   -5.7900   -1.6629    0.0672 O   0  0  0  0  0  0  0  0  0  0  0  0
   -2.6100   -2.2881    1.8634 O   0  0  0  0  0  0  0  0  0  0  0  0
   -3.7991    3.8775    4.2444 H   0  0  0  0  0  0  0  0  0  0  0  0
   -2.8284    1.7272    5.0121 H   0  0  0  0  0  0  0  0  0  0  0  0
   -1.9781    0.0892    3.3771 H   0  0  0  0  0  0  0  0  0  0  0  0
   -3.1197    2.7373    0.1631 H   0  0  0  0  0  0  0  0  0  0  0  0
   -3.9423    4.3751    1.8196 H   0  0  0  0  0  0  0  0  0  0  0  0
   -1.1725   -0.3232    1.0606 H   0  0  0  0  0  0  0  0  0  0  0  0
   -1.5277    0.8602   -0.1406 H   0  0  0  0  0  0  0  0  0  0  0  0
   -3.9289   -0.0234   -0.2793 H   0  0  0  0  0  0  0  0  0  0  0  0
   -4.0222   -0.8334    2.0296 H   0  0  0  0  0  0  0  0  0  0  0  0
   -5.4194   -2.5878    1.8418 H   0  0  0  0  0  0  0  0  0  0  0  0
   -4.0805   -4.3619    1.1752 H   0  0  0  0  0  0  0  0  0  0  0  0
   -3.1990    0.0845   -2.5165 H   0  0  0  0  0  0  0  0  0  0  0  0
   -2.4064   -1.2938   -3.2480 H   0  0  0  0  0  0  0  0  0  0  0  0
   -1.0653    1.0705   -1.9640 H   0  0  0  0  0  0  0  0  0  0  0  0
   -0.9169    0.4287   -3.5442 H   0  0  0  0  0  0  0  0  0  0  0  0
    0.3365   -1.5499   -2.7348 H   0  0  0  0  0  0  0  0  0  0  0  0
    0.1508   -1.0198   -1.0592 H   0  0  0  0  0  0  0  0  0  0  0  0
    1.3623    1.0855   -1.5440 H   0  0  0  0  0  0  0  0  0  0  0  0
    1.5016    0.6562   -3.2391 H   0  0  0  0  0  0  0  0  0  0  0  0
    2.9306   -1.3192   -2.6307 H   0  0  0  0  0  0  0  0  0  0  0  0
    2.8074   -0.8655   -0.9185 H   0  0  0  0  0  0  0  0  0  0  0  0
    3.7889    1.3635   -1.6534 H   0  0  0  0  0  0  0  0  0  0  0  0
    4.7789    2.7081   -3.1551 H   0  0  0  0  0  0  0  0  0  0  0  0
    8.8592    3.9429   -2.8572 H   0  0  0  0  0  0  0  0  0  0  0  0
    9.5477    1.6153   -2.2796 H   0  0  0  0  0  0  0  0  0  0  0  0
    7.8339   -0.1728   -2.1188 H   0  0  0  0  0  0  0  0  0  0  0  0
   -3.2938   -5.1693   -1.9506 H   0  0  0  0  0  0  0  0  0  0  0  0
   -2.8075   -5.6324   -0.3041 H   0  0  0  0  0  0  0  0  0  0  0  0
   -0.6597   -4.4306   -0.5659 H   0  0  0  0  0  0  0  0  0  0  0  0
   -1.1025   -3.9316   -2.1883 H   0  0  0  0  0  0  0  0  0  0  0  0
   -1.2041   -6.2843   -2.9514 H   0  0  0  0  0  0  0  0  0  0  0  0
   -0.8426   -6.8590   -1.3192 H   0  0  0  0  0  0  0  0  0  0  0  0
    1.3604   -5.6755   -1.3815 H   0  0  0  0  0  0  0  0  0  0  0  0
    0.9965   -5.0585   -2.9897 H   0  0  0  0  0  0  0  0  0  0  0  0
    0.9415   -7.3862   -3.8996 H   0  0  0  0  0  0  0  0  0  0  0  0
    1.2506   -8.0379   -2.2833 H   0  0  0  0  0  0  0  0  0  0  0  0
    3.2230   -6.0962   -3.2217 H   0  0  0  0  0  0  0  0  0  0  0  0
    5.3099   -6.3520   -2.3451 H   0  0  0  0  0  0  0  0  0  0  0  0
    8.7552   -7.1620   -4.7459 H   0  0  0  0  0  0  0  0  0  0  0  0
    7.4563   -8.8074   -6.1006 H   0  0  0  0  0  0  0  0  0  0  0  0
    5.0676   -9.2214   -5.5726 H   0  0  0  0  0  0  0  0  0  0  0  0
   -5.2900   -5.4723   -0.7574 H   0  0  0  0  0  0  0  0  0  0  0  0
   -6.0859   -3.9754   -1.1383 H   0  0  0  0  0  0  0  0  0  0  0  0
   -7.9387   -3.1579    0.3050 H   0  0  0  0  0  0  0  0  0  0  0  0
   -9.5675   -3.6423    2.0859 H   0  0  0  0  0  0  0  0  0  0  0  0
   -9.2873   -5.6425    3.5259 H   0  0  0  0  0  0  0  0  0  0  0  0
   -7.3809   -7.1839    3.1486 H   0  0  0  0  0  0  0  0  0  0  0  0
   -5.7285   -6.7079    1.3784 H   0  0  0  0  0  0  0  0  0  0  0  0
   -5.5595   -1.8237   -0.8674 H   0  0  0  0  0  0  0  0  0  0  0  0
   -2.1840   -2.7741    1.1286 H   0  0  0  0  0  0  0  0  0  0  0  0
  1  2  2  0  0  0  0
  1  6  1  0  0  0  0
  1 55  1  0  0  0  0
  2  3  1  0  0  0  0
  2 56  1  0  0  0  0
  3  4  2  0  0  0  0
  3 57  1  0  0  0  0
  4  5  1  0  0  0  0
  4  7  1  0  0  0  0
  5  6  2  0  0  0  0
  5 58  1  0  0  0  0
  6 59  1  0  0  0  0
  7  8  1  0  0  0  0
  7 60  1  0  0  0  0
  7 61  1  0  0  0  0
  8  9  1  0  0  0  0
  8 15  1  0  0  0  0
  8 62  1  6  0  0  0
  9 10  1  0  0  0  0
  9 54  1  0  0  0  0
  9 63  1  1  0  0  0
 10 11  1  0  0  0  0
 10 53  1  0  0  0  0
 10 64  1  1  0  0  0
 11 12  1  0  0  0  0
 11 46  1  0  0  0  0
 11 65  1  1  0  0  0
 12 13  1  0  0  0  0
 12 31  1  0  0  0  0
 13 14  2  0  0  0  0
 13 15  1  0  0  0  0
 15 16  1  0  0  0  0
 16 17  1  0  0  0  0
 16 66  1  0  0  0  0
 16 67  1  0  0  0  0
 17 18  1  0  0  0  0
 17 68  1  0  0  0  0
 17 69  1  0  0  0  0
 18 19  1  0  0  0  0
 18 70  1  0  0  0  0
 18 71  1  0  0  0  0
 19 20  1  0  0  0  0
 19 72  1  0  0  0  0
 19 73  1  0  0  0  0
 20 21  1  0  0  0  0
 20 74  1  0  0  0  0
 20 75  1  0  0  0  0
 21 22  1  0  0  0  0
 21 76  1  0  0  0  0
 22 23  2  0  0  0  0
 22 24  1  0  0  0  0
 24 25  2  0  0  0  0
 24 29  1  0  0  0  0
 25 26  1  0  0  0  0
 25 77  1  0  0  0  0
 26 27  2  0  0  0  0
 26 30  1  0  0  0  0
 27 28  1  0  0  0  0
 27 78  1  0  0  0  0
 28 29  2  0  0  0  0
 28 79  1  0  0  0  0
 29 80  1  0  0  0  0
 31 32  1  0  0  0  0
 31 81  1  0  0  0  0
 31 82  1  0  0  0  0
 32 33  1  0  0  0  0
 32 83  1  0  0  0  0
 32 84  1  0  0  0  0
 33 34  1  0  0  0  0
 33 85  1  0  0  0  0
 33 86  1  0  0  0  0
 34 35  1  0  0  0  0
 34 87  1  0  0  0  0
 34 88  1  0  0  0  0
 35 36  1  0  0  0  0
 35 89  1  0  0  0  0
 35 90  1  0  0  0  0
 36 37  1  0  0  0  0
 36 91  1  0  0  0  0
 37 38  2  0  0  0  0
 37 39  1  0  0  0  0
 39 40  2  0  0  0  0
 39 44  1  0  0  0  0
 40 41  1  0  0  0  0
 40 92  1  0  0  0  0
 41 42  2  0  0  0  0
 41 45  1  0  0  0  0
 42 43  1  0  0  0  0
 42 93  1  0  0  0  0
 43 44  2  0  0  0  0
 43 94  1  0  0  0  0
 44 95  1  0  0  0  0
 46 47  1  0  0  0  0
 46 96  1  0  0  0  0
 46 97  1  0  0  0  0
 47 48  2  0  0  0  0
 47 52  1  0  0  0  0
 48 49  1  0  0  0  0
 48 98  1  0  0  0  0
 49 50  2  0  0  0  0
 49 99  1  0  0  0  0
 50 51  1  0  0  0  0
 50100  1  0  0  0  0
 51 52  2  0  0  0  0
 51101  1  0  0  0  0
 52102  1  0  0  0  0
 53103  1  0  0  0  0
 54104  1  0  0  0  0
M  END
