
 OpenBabel10072616343D

 56 59  0  0  1  0  0  0  0  0999 V2000
    1.1926   -0.7485    0.4068 C   0  0  0  0  0  0  0  0  0  0  0  0
   -0.2525   -1.0223   -0.0967 C   0  0  0  0  0  0  0  0  0  0  0  0
   -1.2286    0.0901    0.0991 N   0  0  0  0  0  0  0  0  0  0  0  0
   -0.6233    1.2907   -0.5291 C   0  0  0  0  0  0  0  0  0  0  0  0
    0.7682    1.6681    0.0267 C   0  0  0  0  0  0  0  0  0  0  0  0
    1.7103    0.5450   -0.0930 N   0  0  0  0  0  0  0  0  0  0  0  0
    2.6567    0.5094   -1.1182 C   0  0  0  0  0  0  0  0  0  0  0  0
    3.8219   -0.2600   -0.9664 C   0  0  0  0  0  0  0  0  0  0  0  0
    4.8168   -0.3037   -1.9504 C   0  0  0  0  0  0  0  0  0  0  0  0
    4.6642    0.4227   -3.1250 C   0  0  0  0  0  0  0  0  0  0  0  0
    3.5222    1.1963   -3.3031 C   0  0  0  0  0  0  0  0  0  0  0  0
    2.5388    1.2447   -2.3054 C   0  0  0  0  0  0  0  0  0  0  0  0
   -1.5993    0.2584    1.5337 C   0  0  3  0  0  0  0  0  0  0  0  0
   -2.3818    1.5788    1.8503 C   0  0  0  0  0  0  0  0  0  0  0  0
   -2.6082    1.7418    3.2990 N   0  0  0  0  0  0  0  0  0  0  0  0
   -3.7227    2.8828    3.8168 S   0  0  0  0  0  0  0  0  0  0  0  0
   -3.4321    3.1517    5.2033 O   0  0  0  0  0  0  0  0  0  0  0  0
   -3.7334    3.9456    2.8311 O   0  0  0  0  0  0  0  0  0  0  0  0
   -5.2579    2.0389    3.7408 C   0  0  0  0  0  0  0  0  0  0  0  0
   -5.4369    0.8866    4.5018 C   0  0  0  0  0  0  0  0  0  0  0  0
   -6.6622    0.2234    4.4853 C   0  0  0  0  0  0  0  0  0  0  0  0
   -7.7083    0.7179    3.7069 C   0  0  0  0  0  0  0  0  0  0  0  0
   -7.5154    1.8697    2.9464 C   0  0  0  0  0  0  0  0  0  0  0  0
   -6.2972    2.5377    2.9536 C   0  0  0  0  0  0  0  0  0  0  0  0
   -8.5247    2.3469    2.2088 F   0  0  0  0  0  0  0  0  0  0  0  0
   -4.4510    0.3942    5.2607 F   0  0  0  0  0  0  0  0  0  0  0  0
   -2.4368   -0.9254    2.0114 C   0  0  0  0  0  0  0  0  0  0  0  0
   -3.6027   -1.3062    1.3517 C   0  0  0  0  0  0  0  0  0  0  0  0
   -4.4106   -2.3188    1.7497 N   0  0  0  0  0  0  0  0  0  0  0  0
   -4.0348   -2.9879    2.8586 C   0  0  0  0  0  0  0  0  0  0  0  0
   -2.8924   -2.7037    3.5814 C   0  0  0  0  0  0  0  0  0  0  0  0
   -2.0796   -1.6578    3.1500 C   0  0  0  0  0  0  0  0  0  0  0  0
    1.8203   -1.5981    0.1169 H   0  0  0  0  0  0  0  0  0  0  0  0
    1.2056   -0.7227    1.5028 H   0  0  0  0  0  0  0  0  0  0  0  0
   -0.6246   -1.9506    0.3514 H   0  0  0  0  0  0  0  0  0  0  0  0
   -0.2050   -1.2283   -1.1749 H   0  0  0  0  0  0  0  0  0  0  0  0
   -1.3030    2.1469   -0.4774 H   0  0  0  0  0  0  0  0  0  0  0  0
   -0.5303    1.0877   -1.6041 H   0  0  0  0  0  0  0  0  0  0  0  0
    0.6796    1.9208    1.0906 H   0  0  0  0  0  0  0  0  0  0  0  0
    1.1391    2.5808   -0.4531 H   0  0  0  0  0  0  0  0  0  0  0  0
    3.9907   -0.8094   -0.0431 H   0  0  0  0  0  0  0  0  0  0  0  0
    5.7091   -0.9004   -1.7918 H   0  0  0  0  0  0  0  0  0  0  0  0
    5.4286    0.3861   -3.8949 H   0  0  0  0  0  0  0  0  0  0  0  0
    3.3942    1.7659   -4.2183 H   0  0  0  0  0  0  0  0  0  0  0  0
    1.6631    1.8569   -2.5016 H   0  0  0  0  0  0  0  0  0  0  0  0
   -0.6864    0.2927    2.1431 H   0  0  0  0  0  0  0  0  0  0  0  0
   -3.3337    1.5968    1.3079 H   0  0  0  0  0  0  0  0  0  0  0  0
   -1.7857    2.4442    1.5452 H   0  0  0  0  0  0  0  0  0  0  0  0
   -1.8197    1.6643    3.9374 H   0  0  0  0  0  0  0  0  0  0  0  0
   -6.7934   -0.6752    5.0822 H   0  0  0  0  0  0  0  0  0  0  0  0
   -8.6690    0.2126    3.6817 H   0  0  0  0  0  0  0  0  0  0  0  0
   -6.1800    3.4374    2.3548 H   0  0  0  0  0  0  0  0  0  0  0  0
   -3.9357   -0.7935    0.4537 H   0  0  0  0  0  0  0  0  0  0  0  0
   -4.7035   -3.7887    3.1659 H   0  0  0  0  0  0  0  0  0  0  0  0
   -2.6417   -3.2768    4.4685 H   0  0  0  0  0  0  0  0  0  0  0  0
   -1.1841   -1.4135    3.7115 H   0  0  0  0  0  0  0  0  0  0  0  0
  1  2  1  0  0  0  0
  1  6  1  0  0  0  0
  1 33  1  0  0  0  0
  1 34  1  0  0  0  0
  2  3  1  0  0  0  0
  2 35  1  0  0  0  0
  2 36  1  0  0  0  0
  3  4  1  0  0  0  0
  3 13  1  0  0  0  0
  4  5  1  0  0  0  0
  4 37  1  0  0  0  0
  4 38  1  0  0  0  0
  5  6  1  0  0  0  0
  5 39  1  0  0  0  0
  5 40  1  0  0  0  0
  6  7  1  0  0  0  0
  7  8  2  0  0  0  0
  7 12  1  0  0  0  0
  8  9  1  0  0  0  0
  8 41  1  0  0  0  0
  9 10  2  0  0  0  0
  9 42  1  0  0  0  0
 10 11  1  0  0  0  0
 10 43  1  0  0  0  0
 11 12  2  0  0  0  0
 11 44  1  0  0  0  0
 12 45  1  0  0  0  0
 13 14  1  0  0  0  0
 13 27  1  0  0  0  0
 13 46  1  0  0  0  0
 14 15  1  0  0  0  0
 14 47  1  0  0  0  0
 14 48  1  0  0  0  0
 15 16  1  0  0  0  0
 15 49  1  0  0  0  0
 16 17  2  0  0  0  0
 16 18  2  0  0  0  0
 16 19  1  0  0  0  0
 19 20  2  0  0  0  0
 19 24  1  0  0  0  0
 20 21  1  0  0  0  0
 20 26  1  0  0  0  0
 21 22  2  0  0  0  0
 21 50  1  0  0  0  0
 22 23  1  0  0  0  0
 22 51  1  0  0  0  0
 23 24  2  0  0  0  0
 23 25  1  0  0  0  0
 24 52  1  0  0  0  0
 27 28  2  0  0  0  0
 27 32  1  0  0  0  0
 28 29  1  0  0  0  0
 28 53  1  0  0  0  0
 29 30  2  0  0  0  0
 30 31  1  0  0  0  0
 30 54  1  0  0  0  0
 31 32  2  0  0  0  0
 31 55  1  0  0  0  0
 32 56  1  0  0  0  0
M  END
