
 OpenBabel10072620203D

 31 32  0  0  0  0  0  0  0  0999 V2000
    1.6666   -0.8715    0.0161 C   0  0  0  0  0  0  0  0  0  0  0  0
    2.4243    0.3635    0.1838 N   0  0  0  0  0  0  0  0  0  0  0  0
    3.2642    0.3506    1.3762 C   0  0  0  0  0  0  0  0  0  0  0  0
    3.1351    0.7539   -1.0035 N   0  0  0  0  0  0  0  0  0  0  0  0
    4.1704   -0.0563   -1.4983 C   0  0  0  0  0  0  0  0  0  0  0  0
    4.5638   -1.1100   -1.0012 O   0  0  0  0  0  0  0  0  0  0  0  0
    4.8371    0.4188   -2.7299 C   0  0  0  0  0  0  0  0  0  0  0  0
    5.8720   -0.3173   -3.3184 C   0  0  0  0  0  0  0  0  0  0  0  0
    6.4897    0.1547   -4.4876 C   0  0  0  0  0  0  0  0  0  0  0  0
    6.0709    1.3571   -5.0652 C   0  0  0  0  0  0  0  0  0  0  0  0
    5.0332    2.0859   -4.4664 C   0  0  0  0  0  0  0  0  0  0  0  0
    4.4212    1.6127   -3.3045 C   0  0  0  0  0  0  0  0  0  0  0  0
    3.3890    2.3403   -2.7231 N   0  0  0  0  0  0  0  0  0  0  0  0
    2.7187    1.9577   -1.5887 C   0  0  0  0  0  0  0  0  0  0  0  0
    1.8170    2.6873   -1.1743 O   0  0  0  0  0  0  0  0  0  0  0  0
    6.7639    2.0386   -6.4923 Cl  0  0  0  0  0  0  0  0  0  0  0  0
    7.7698   -0.8242   -5.2091 S   0  0  0  0  0  0  0  0  0  0  0  0
    8.0807   -1.9162   -4.3155 O   0  0  0  0  0  0  0  0  0  0  0  0
    7.4716   -1.0432   -6.6029 O   0  0  0  0  0  0  0  0  0  0  0  0
    9.1085    0.1834   -5.1312 N   0  0  0  0  0  0  0  0  0  0  0  0
    0.9944   -1.0208    0.8684 H   0  0  0  0  0  0  0  0  0  0  0  0
    2.3041   -1.7573   -0.0681 H   0  0  0  0  0  0  0  0  0  0  0  0
    1.0343   -0.8173   -0.8773 H   0  0  0  0  0  0  0  0  0  0  0  0
    2.6437    0.2445    2.2731 H   0  0  0  0  0  0  0  0  0  0  0  0
    3.8041    1.2988    1.4779 H   0  0  0  0  0  0  0  0  0  0  0  0
    3.9963   -0.4632    1.3764 H   0  0  0  0  0  0  0  0  0  0  0  0
    6.1883   -1.2565   -2.8641 H   0  0  0  0  0  0  0  0  0  0  0  0
    4.7061    3.0223   -4.9142 H   0  0  0  0  0  0  0  0  0  0  0  0
    3.0672    3.2122   -3.1259 H   0  0  0  0  0  0  0  0  0  0  0  0
    9.8343   -0.2492   -4.5578 H   0  0  0  0  0  0  0  0  0  0  0  0
    9.4203    0.4206   -6.0748 H   0  0  0  0  0  0  0  0  0  0  0  0
  1  2  1  0  0  0  0
  1 21  1  0  0  0  0
  1 22  1  0  0  0  0
  1 23  1  0  0  0  0
  2  3  1  0  0  0  0
  2  4  1  0  0  0  0
  3 24  1  0  0  0  0
  3 25  1  0  0  0  0
  3 26  1  0  0  0  0
  4  5  1  0  0  0  0
  4 14  1  0  0  0  0
  5  6  2  0  0  0  0
  5  7  1  0  0  0  0
  7  8  2  0  0  0  0
  7 12  1  0  0  0  0
  8  9  1  0  0  0  0
  8 27  1  0  0  0  0
  9 10  2  0  0  0  0
  9 17  1  0  0  0  0
 10 11  1  0  0  0  0
 10 16  1  0  0  0  0
 11 12  2  0  0  0  0
 11 28  1  0  0  0  0
 12 13  1  0  0  0  0
 13 14  1  0  0  0  0
 13 29  1  0  0  0  0
 14 15  2  0  0  0  0
 17 18  2  0  0  0  0
 17 19  2  0  0  0  0
 17 20  1  0  0  0  0
 20 30  1  0  0  0  0
 20 31  1  0  0  0  0
M  END
