
 OpenBabel10072619433D

 29 29  0  0  0  0  0  0  0  0999 V2000
    1.2749    0.2228    0.1186 C   0  0  0  0  0  0  0  0  0  0  0  0
    2.7357   -0.1174    0.1485 C   0  0  0  0  0  0  0  0  0  0  0  0
    3.1740   -1.2344   -0.0925 O   0  0  0  0  0  0  0  0  0  0  0  0
    3.4431    0.9902    0.5339 O   0  0  0  0  0  0  0  0  0  0  0  0
    4.8527    0.9676    0.5701 C   0  0  0  0  0  0  0  0  0  0  0  0
    5.6111    0.3742   -0.3650 C   0  0  0  0  0  0  0  0  0  0  0  0
    5.4501    1.8310    1.5721 C   0  0  0  0  0  0  0  0  0  0  0  0
    5.0143    2.1266    2.8133 C   0  0  0  0  0  0  0  0  0  0  0  0
    3.7971    1.5654    3.5113 C   0  0  0  0  0  0  0  0  0  0  0  0
    2.8674    2.6944    3.9589 C   0  0  0  0  0  0  0  0  0  0  0  0
    3.6011    3.7156    4.8304 C   0  0  0  0  0  0  0  0  0  0  0  0
    4.8613    4.2432    4.1429 C   0  0  0  0  0  0  0  0  0  0  0  0
    5.7776    3.1094    3.6777 C   0  0  0  0  0  0  0  0  0  0  0  0
    0.7292   -0.5668   -0.4062 H   0  0  0  0  0  0  0  0  0  0  0  0
    1.1177    1.1584   -0.4249 H   0  0  0  0  0  0  0  0  0  0  0  0
    0.8971    0.3049    1.1403 H   0  0  0  0  0  0  0  0  0  0  0  0
    5.1768   -0.1996   -1.1765 H   0  0  0  0  0  0  0  0  0  0  0  0
    6.6945    0.4316   -0.3398 H   0  0  0  0  0  0  0  0  0  0  0  0
    6.3872    2.2857    1.2471 H   0  0  0  0  0  0  0  0  0  0  0  0
    4.1325    1.0012    4.3916 H   0  0  0  0  0  0  0  0  0  0  0  0
    3.2369    0.8543    2.9019 H   0  0  0  0  0  0  0  0  0  0  0  0
    2.0237    2.2754    4.5194 H   0  0  0  0  0  0  0  0  0  0  0  0
    2.4485    3.1997    3.0792 H   0  0  0  0  0  0  0  0  0  0  0  0
    3.8762    3.2482    5.7843 H   0  0  0  0  0  0  0  0  0  0  0  0
    2.9316    4.5510    5.0654 H   0  0  0  0  0  0  0  0  0  0  0  0
    5.4084    4.8975    4.8313 H   0  0  0  0  0  0  0  0  0  0  0  0
    4.5720    4.8582    3.2810 H   0  0  0  0  0  0  0  0  0  0  0  0
    6.1824    2.5771    4.5475 H   0  0  0  0  0  0  0  0  0  0  0  0
    6.6334    3.5387    3.1434 H   0  0  0  0  0  0  0  0  0  0  0  0
  1  2  1  0  0  0  0
  1 14  1  0  0  0  0
  1 15  1  0  0  0  0
  1 16  1  0  0  0  0
  2  3  2  0  0  0  0
  2  4  1  0  0  0  0
  4  5  1  0  0  0  0
  5  6  2  0  0  0  0
  5  7  1  0  0  0  0
  6 17  1  0  0  0  0
  6 18  1  0  0  0  0
  7  8  2  0  0  0  0
  7 19  1  0  0  0  0
  8  9  1  0  0  0  0
  8 13  1  0  0  0  0
  9 10  1  0  0  0  0
  9 20  1  0  0  0  0
  9 21  1  0  0  0  0
 10 11  1  0  0  0  0
 10 22  1  0  0  0  0
 10 23  1  0  0  0  0
 11 12  1  0  0  0  0
 11 24  1  0  0  0  0
 11 25  1  0  0  0  0
 12 13  1  0  0  0  0
 12 26  1  0  0  0  0
 12 27  1  0  0  0  0
 13 28  1  0  0  0  0
 13 29  1  0  0  0  0
M  END
