
 OpenBabel10072620023D

 31 33  0  0  0  0  0  0  0  0999 V2000
    1.9865    0.1402    1.0937 C   0  0  0  0  0  0  0  0  0  0  0  0
    1.8172    1.2862    0.3209 C   0  0  0  0  0  0  0  0  0  0  0  0
    0.8688    1.3023   -0.7016 C   0  0  0  0  0  0  0  0  0  0  0  0
    0.0839    0.1713   -0.9486 C   0  0  0  0  0  0  0  0  0  0  0  0
    0.2401   -0.9890   -0.1708 C   0  0  0  0  0  0  0  0  0  0  0  0
    1.2076   -0.9926    0.8463 C   0  0  0  0  0  0  0  0  0  0  0  0
   -0.5525   -2.2021   -0.4182 C   0  0  0  0  0  0  0  0  0  0  0  0
   -1.2867   -2.7996    0.5345 C   0  0  0  0  0  0  0  0  0  0  0  0
   -2.1078   -3.9904    0.2536 C   0  0  0  0  0  0  0  0  0  0  0  0
   -3.0388   -3.9251   -0.7871 C   0  0  0  0  0  0  0  0  0  0  0  0
   -3.8195   -5.0326   -1.0413 C   0  0  0  0  0  0  0  0  0  0  0  0
   -3.7426   -6.1793   -0.3403 N   0  0  0  0  0  0  0  0  0  0  0  0
   -2.8617   -6.2463    0.6719 C   0  0  0  0  0  0  0  0  0  0  0  0
   -2.7960   -7.4253    1.3991 C   0  0  0  0  0  0  0  0  0  0  0  0
   -1.9179   -7.5851    2.4730 C   0  0  0  0  0  0  0  0  0  0  0  0
   -1.0760   -6.5428    2.8342 C   0  0  0  0  0  0  0  0  0  0  0  0
   -1.1172   -5.3489    2.1152 C   0  0  0  0  0  0  0  0  0  0  0  0
   -2.0099   -5.1743    1.0263 C   0  0  0  0  0  0  0  0  0  0  0  0
   -1.0832    0.2664   -2.2241 Cl  0  0  0  0  0  0  0  0  0  0  0  0
    2.7301    0.1239    1.8870 H   0  0  0  0  0  0  0  0  0  0  0  0
    2.4246    2.1669    0.5141 H   0  0  0  0  0  0  0  0  0  0  0  0
    0.7408    2.2000   -1.3011 H   0  0  0  0  0  0  0  0  0  0  0  0
    1.3670   -1.8829    1.4509 H   0  0  0  0  0  0  0  0  0  0  0  0
   -0.5322   -2.5805   -1.4382 H   0  0  0  0  0  0  0  0  0  0  0  0
   -1.3217   -2.4220    1.5534 H   0  0  0  0  0  0  0  0  0  0  0  0
   -3.1636   -3.0275   -1.3835 H   0  0  0  0  0  0  0  0  0  0  0  0
   -4.5560   -5.0249   -1.8401 H   0  0  0  0  0  0  0  0  0  0  0  0
   -3.4539   -8.2470    1.1217 H   0  0  0  0  0  0  0  0  0  0  0  0
   -1.8997   -8.5220    3.0226 H   0  0  0  0  0  0  0  0  0  0  0  0
   -0.3897   -6.6570    3.6694 H   0  0  0  0  0  0  0  0  0  0  0  0
   -0.4440   -4.5483    2.4121 H   0  0  0  0  0  0  0  0  0  0  0  0
  1  2  2  0  0  0  0
  1  6  1  0  0  0  0
  1 20  1  0  0  0  0
  2  3  1  0  0  0  0
  2 21  1  0  0  0  0
  3  4  2  0  0  0  0
  3 22  1  0  0  0  0
  4  5  1  0  0  0  0
  4 19  1  0  0  0  0
  5  6  2  0  0  0  0
  5  7  1  0  0  0  0
  6 23  1  0  0  0  0
  7  8  2  3  0  0  0
  7 24  1  0  0  0  0
  8  9  1  0  0  0  0
  8 25  1  0  0  0  0
  9 10  2  0  0  0  0
  9 18  1  0  0  0  0
 10 11  1  0  0  0  0
 10 26  1  0  0  0  0
 11 12  2  0  0  0  0
 11 27  1  0  0  0  0
 12 13  1  0  0  0  0
 13 14  2  0  0  0  0
 13 18  1  0  0  0  0
 14 15  1  0  0  0  0
 14 28  1  0  0  0  0
 15 16  2  0  0  0  0
 15 29  1  0  0  0  0
 16 17  1  0  0  0  0
 16 30  1  0  0  0  0
 17 18  2  0  0  0  0
 17 31  1  0  0  0  0
M  END
