
 OpenBabel10072619513D

 41 43  0  0  0  0  0  0  0  0999 V2000
   10.5696   -3.9536   -9.4324 C   0  0  0  0  0  0  0  0  0  0  0  0
   10.3583   -2.7703   -8.6743 O   0  0  0  0  0  0  0  0  0  0  0  0
    9.0974   -2.5659   -8.1877 C   0  0  0  0  0  0  0  0  0  0  0  0
    7.9709   -3.3413   -8.4715 C   0  0  0  0  0  0  0  0  0  0  0  0
    6.7395   -3.0255   -7.8911 C   0  0  0  0  0  0  0  0  0  0  0  0
    6.6332   -1.9406   -7.0223 C   0  0  0  0  0  0  0  0  0  0  0  0
    7.7534   -1.1585   -6.7498 C   0  0  0  0  0  0  0  0  0  0  0  0
    8.9813   -1.4678   -7.3319 C   0  0  0  0  0  0  0  0  0  0  0  0
    7.6639   -0.0707   -5.8368 N   0  0  0  0  0  0  0  0  0  0  0  0
    7.5367   -0.4155   -4.1848 S   0  0  0  0  0  0  0  0  0  0  0  0
    7.6754    0.8507   -3.4972 O   0  0  0  0  0  0  0  0  0  0  0  0
    6.3942   -1.2741   -3.9550 O   0  0  0  0  0  0  0  0  0  0  0  0
    9.0123   -1.3517   -3.8524 C   0  0  0  0  0  0  0  0  0  0  0  0
   10.2119   -0.6728   -3.6231 C   0  0  0  0  0  0  0  0  0  0  0  0
   11.3691   -1.3983   -3.3298 C   0  0  0  0  0  0  0  0  0  0  0  0
   11.3418   -2.8013   -3.2528 C   0  0  0  0  0  0  0  0  0  0  0  0
   10.1171   -3.4589   -3.4715 C   0  0  0  0  0  0  0  0  0  0  0  0
    8.9542   -2.7427   -3.7660 C   0  0  0  0  0  0  0  0  0  0  0  0
   12.5627   -3.5660   -2.9567 C   0  0  0  0  0  0  0  0  0  0  0  0
   13.3228   -3.3091   -1.8036 C   0  0  0  0  0  0  0  0  0  0  0  0
   14.4781   -4.0456   -1.5262 C   0  0  0  0  0  0  0  0  0  0  0  0
   14.8952   -5.0444   -2.4028 C   0  0  0  0  0  0  0  0  0  0  0  0
   14.1590   -5.3090   -3.5546 C   0  0  0  0  0  0  0  0  0  0  0  0
   13.0031   -4.5748   -3.8293 C   0  0  0  0  0  0  0  0  0  0  0  0
   11.6400   -4.0209   -9.6466 H   0  0  0  0  0  0  0  0  0  0  0  0
   10.0383   -3.9066  -10.3883 H   0  0  0  0  0  0  0  0  0  0  0  0
   10.2874   -4.8477   -8.8666 H   0  0  0  0  0  0  0  0  0  0  0  0
    8.0159   -4.1921   -9.1435 H   0  0  0  0  0  0  0  0  0  0  0  0
    5.8601   -3.6245   -8.1166 H   0  0  0  0  0  0  0  0  0  0  0  0
    5.6719   -1.7065   -6.5707 H   0  0  0  0  0  0  0  0  0  0  0  0
    9.8632   -0.8696   -7.1197 H   0  0  0  0  0  0  0  0  0  0  0  0
    8.2809    0.7236   -5.9991 H   0  0  0  0  0  0  0  0  0  0  0  0
   10.2555    0.4130   -3.6634 H   0  0  0  0  0  0  0  0  0  0  0  0
   12.3013   -0.8603   -3.1643 H   0  0  0  0  0  0  0  0  0  0  0  0
   10.0611   -4.5437   -3.3960 H   0  0  0  0  0  0  0  0  0  0  0  0
    8.0183   -3.2745   -3.9227 H   0  0  0  0  0  0  0  0  0  0  0  0
   13.0117   -2.5352   -1.1045 H   0  0  0  0  0  0  0  0  0  0  0  0
   15.0492   -3.8416   -0.6242 H   0  0  0  0  0  0  0  0  0  0  0  0
   15.7964   -5.6138   -2.1911 H   0  0  0  0  0  0  0  0  0  0  0  0
   14.4835   -6.0858   -4.2414 H   0  0  0  0  0  0  0  0  0  0  0  0
   12.4500   -4.7851   -4.7427 H   0  0  0  0  0  0  0  0  0  0  0  0
  1  2  1  0  0  0  0
  1 25  1  0  0  0  0
  1 26  1  0  0  0  0
  1 27  1  0  0  0  0
  2  3  1  0  0  0  0
  3  4  2  0  0  0  0
  3  8  1  0  0  0  0
  4  5  1  0  0  0  0
  4 28  1  0  0  0  0
  5  6  2  0  0  0  0
  5 29  1  0  0  0  0
  6  7  1  0  0  0  0
  6 30  1  0  0  0  0
  7  8  2  0  0  0  0
  7  9  1  0  0  0  0
  8 31  1  0  0  0  0
  9 10  1  0  0  0  0
  9 32  1  0  0  0  0
 10 11  2  0  0  0  0
 10 12  2  0  0  0  0
 10 13  1  0  0  0  0
 13 14  2  0  0  0  0
 13 18  1  0  0  0  0
 14 15  1  0  0  0  0
 14 33  1  0  0  0  0
 15 16  2  0  0  0  0
 15 34  1  0  0  0  0
 16 17  1  0  0  0  0
 16 19  1  0  0  0  0
 17 18  2  0  0  0  0
 17 35  1  0  0  0  0
 18 36  1  0  0  0  0
 19 20  2  0  0  0  0
 19 24  1  0  0  0  0
 20 21  1  0  0  0  0
 20 37  1  0  0  0  0
 21 22  2  0  0  0  0
 21 38  1  0  0  0  0
 22 23  1  0  0  0  0
 22 39  1  0  0  0  0
 23 24  2  0  0  0  0
 23 40  1  0  0  0  0
 24 41  1  0  0  0  0
M  END
