
 OpenBabel10072620163D

 53 56  0  0  0  0  0  0  0  0999 V2000
    2.1854    0.1590    1.4128 C   0  0  0  0  0  0  0  0  0  0  0  0
    0.7504    0.1956    0.9793 C   0  0  0  0  0  0  0  0  0  0  0  0
   -0.2788   -0.0690    1.8882 C   0  0  0  0  0  0  0  0  0  0  0  0
   -1.6137   -0.0439    1.4752 C   0  0  0  0  0  0  0  0  0  0  0  0
   -1.9449    0.2337    0.1423 C   0  0  0  0  0  0  0  0  0  0  0  0
   -0.9087    0.4825   -0.7682 C   0  0  0  0  0  0  0  0  0  0  0  0
    0.4253    0.4562   -0.3554 C   0  0  0  0  0  0  0  0  0  0  0  0
   -3.3861    0.2905   -0.3024 C   0  0  0  0  0  0  0  0  0  0  0  0
   -3.9094    1.6519   -0.2627 N   0  0  0  0  0  0  0  0  0  0  0  0
   -4.5622    2.2332    0.8141 C   0  0  0  0  0  0  0  0  0  0  0  0
   -4.9057    1.7233    2.0777 C   0  0  0  0  0  0  0  0  0  0  0  0
   -5.5479    2.5729    2.9832 C   0  0  0  0  0  0  0  0  0  0  0  0
   -5.8441    3.8886    2.6446 C   0  0  0  0  0  0  0  0  0  0  0  0
   -5.5092    4.3881    1.3827 C   0  0  0  0  0  0  0  0  0  0  0  0
   -4.8613    3.5514    0.4489 C   0  0  0  0  0  0  0  0  0  0  0  0
   -4.4023    3.7242   -0.8826 C   0  0  0  0  0  0  0  0  0  0  0  0
   -3.8519    2.5366   -1.3170 C   0  0  0  0  0  0  0  0  0  0  0  0
   -3.3202    2.1827   -2.4852 O   0  0  0  0  0  0  0  0  0  0  0  0
   -4.5255    4.9378   -1.5799 N   0  0  0  0  0  0  0  0  0  0  0  0
   -4.0534    4.9162   -2.7382 N   0  0  0  0  0  0  0  0  0  0  0  0
   -4.1698    6.1425   -3.3453 C   0  0  0  0  0  0  0  0  0  0  0  0
   -5.6172    6.8107   -3.9118 S   0  0  0  0  0  0  0  0  0  0  0  0
   -3.0349    6.8753   -3.6239 N   0  0  0  0  0  0  0  0  0  0  0  0
   -1.6712    6.6527   -3.3447 C   0  0  0  0  0  0  0  0  0  0  0  0
   -1.1597    5.5931   -2.5991 C   0  0  0  0  0  0  0  0  0  0  0  0
    0.2226    5.4740   -2.3854 C   0  0  0  0  0  0  0  0  0  0  0  0
    1.1228    6.4133   -2.9084 C   0  0  0  0  0  0  0  0  0  0  0  0
    0.6100    7.4766   -3.6508 C   0  0  0  0  0  0  0  0  0  0  0  0
   -0.7709    7.5934   -3.8623 C   0  0  0  0  0  0  0  0  0  0  0  0
    2.4522    6.2148   -2.6467 O   0  0  0  0  0  0  0  0  0  0  0  0
    3.3765    7.1707   -3.1474 C   0  0  0  0  0  0  0  0  0  0  0  0
    0.7806    4.1256   -1.4522 Cl  0  0  0  0  0  0  0  0  0  0  0  0
    2.2777    0.3588    2.4856 H   0  0  0  0  0  0  0  0  0  0  0  0
    2.7665    0.9255    0.8887 H   0  0  0  0  0  0  0  0  0  0  0  0
    2.6169   -0.8238    1.1993 H   0  0  0  0  0  0  0  0  0  0  0  0
   -0.0494   -0.2850    2.9292 H   0  0  0  0  0  0  0  0  0  0  0  0
   -2.3917   -0.2365    2.2090 H   0  0  0  0  0  0  0  0  0  0  0  0
   -1.1336    0.7134   -1.8078 H   0  0  0  0  0  0  0  0  0  0  0  0
    1.2092    0.6593   -1.0819 H   0  0  0  0  0  0  0  0  0  0  0  0
   -4.0189   -0.3421    0.3300 H   0  0  0  0  0  0  0  0  0  0  0  0
   -3.4959   -0.0944   -1.3231 H   0  0  0  0  0  0  0  0  0  0  0  0
   -4.6830    0.7003    2.3606 H   0  0  0  0  0  0  0  0  0  0  0  0
   -5.8180    2.1981    3.9678 H   0  0  0  0  0  0  0  0  0  0  0  0
   -6.3418    4.5342    3.3638 H   0  0  0  0  0  0  0  0  0  0  0  0
   -5.7494    5.4148    1.1212 H   0  0  0  0  0  0  0  0  0  0  0  0
   -3.4144    2.9617   -3.0667 H   0  0  0  0  0  0  0  0  0  0  0  0
   -3.2562    7.7217   -4.1365 H   0  0  0  0  0  0  0  0  0  0  0  0
   -1.7937    4.8420   -2.1480 H   0  0  0  0  0  0  0  0  0  0  0  0
    1.2547    8.2350   -4.0832 H   0  0  0  0  0  0  0  0  0  0  0  0
   -1.1280    8.4382   -4.4484 H   0  0  0  0  0  0  0  0  0  0  0  0
    4.3808    6.8573   -2.8464 H   0  0  0  0  0  0  0  0  0  0  0  0
    3.1927    8.1595   -2.7149 H   0  0  0  0  0  0  0  0  0  0  0  0
    3.3530    7.2051   -4.2413 H   0  0  0  0  0  0  0  0  0  0  0  0
  1  2  1  0  0  0  0
  1 33  1  0  0  0  0
  1 34  1  0  0  0  0
  1 35  1  0  0  0  0
  2  3  2  0  0  0  0
  2  7  1  0  0  0  0
  3  4  1  0  0  0  0
  3 36  1  0  0  0  0
  4  5  2  0  0  0  0
  4 37  1  0  0  0  0
  5  6  1  0  0  0  0
  5  8  1  0  0  0  0
  6  7  2  0  0  0  0
  6 38  1  0  0  0  0
  7 39  1  0  0  0  0
  8  9  1  0  0  0  0
  8 40  1  0  0  0  0
  8 41  1  0  0  0  0
  9 10  1  0  0  0  0
  9 17  1  0  0  0  0
 10 11  2  0  0  0  0
 10 15  1  0  0  0  0
 11 12  1  0  0  0  0
 11 42  1  0  0  0  0
 12 13  2  0  0  0  0
 12 43  1  0  0  0  0
 13 14  1  0  0  0  0
 13 44  1  0  0  0  0
 14 15  2  0  0  0  0
 14 45  1  0  0  0  0
 15 16  1  0  0  0  0
 16 17  2  0  0  0  0
 16 19  1  0  0  0  0
 17 18  1  0  0  0  0
 18 46  1  0  0  0  0
 19 20  2  3  0  0  0
 20 21  1  0  0  0  0
 21 22  2  0  0  0  0
 21 23  1  0  0  0  0
 23 24  1  0  0  0  0
 23 47  1  0  0  0  0
 24 25  2  0  0  0  0
 24 29  1  0  0  0  0
 25 26  1  0  0  0  0
 25 48  1  0  0  0  0
 26 27  2  0  0  0  0
 26 32  1  0  0  0  0
 27 28  1  0  0  0  0
 27 30  1  0  0  0  0
 28 29  2  0  0  0  0
 28 49  1  0  0  0  0
 29 50  1  0  0  0  0
 30 31  1  0  0  0  0
 31 51  1  0  0  0  0
 31 52  1  0  0  0  0
 31 53  1  0  0  0  0
M  END
