
 OpenBabel10072620093D

 51 54  0  0  0  0  0  0  0  0999 V2000
    0.4835    4.2791    4.6198 C   0  0  0  0  0  0  0  0  0  0  0  0
    0.9267    3.9969    3.2133 C   0  0  0  0  0  0  0  0  0  0  0  0
    2.2581    3.9375    2.9934 N   0  0  0  0  0  0  0  0  0  0  0  0
    2.7008    3.6467    1.7616 C   0  0  0  0  0  0  0  0  0  0  0  0
    4.0729    3.5640    1.5647 C   0  0  0  0  0  0  0  0  0  0  0  0
    4.6205    3.2684    0.3180 C   0  0  0  0  0  0  0  0  0  0  0  0
    3.7815    3.0522   -0.7680 C   0  0  0  0  0  0  0  0  0  0  0  0
    2.3975    3.1236   -0.5933 C   0  0  0  0  0  0  0  0  0  0  0  0
    1.8361    3.4152    0.6717 C   0  0  0  0  0  0  0  0  0  0  0  0
    0.4409    3.5104    0.9123 C   0  0  0  0  0  0  0  0  0  0  0  0
   -0.0036    3.7887    2.2110 C   0  0  0  0  0  0  0  0  0  0  0  0
   -0.4934    3.1641   -0.1155 N   0  0  0  0  0  0  0  0  0  0  0  0
   -1.7219    3.7797   -0.2568 C   0  0  0  0  0  0  0  0  0  0  0  0
   -2.8610    3.2052   -0.3777 N   0  0  0  0  0  0  0  0  0  0  0  0
   -3.1708    1.7834   -0.3772 C   0  0  0  0  0  0  0  0  0  0  0  0
   -2.8069    1.0946    0.9425 C   0  0  0  0  0  0  0  0  0  0  0  0
   -2.1077   -0.2462    0.7372 C   0  0  0  0  0  0  0  0  0  0  0  0
   -2.8263   -1.0995   -0.3006 C   0  0  0  0  0  0  0  0  0  0  0  0
   -3.0164   -0.3955   -1.6473 C   0  0  0  0  0  0  0  0  0  0  0  0
   -2.6404    1.0867   -1.6325 C   0  0  0  0  0  0  0  0  0  0  0  0
   -1.5884    5.1464   -0.3519 N   0  0  0  0  0  0  0  0  0  0  0  0
   -2.5541    6.0577   -0.6105 C   0  0  0  0  0  0  0  0  0  0  0  0
   -3.8602    5.9309   -0.4667 N   0  0  0  0  0  0  0  0  0  0  0  0
   -4.5686    7.0445   -0.8703 N   0  0  0  0  0  0  0  0  0  0  0  0
   -3.7784    7.9968   -1.3024 C   0  0  0  0  0  0  0  0  0  0  0  0
   -2.1076    7.6220   -1.2030 S   0  0  0  0  0  0  0  0  0  0  0  0
   -4.2437    9.2936   -1.8520 C   0  0  0  0  0  0  0  0  0  0  0  0
    1.3442    4.3443    5.2935 H   0  0  0  0  0  0  0  0  0  0  0  0
   -0.1635    3.4710    4.9764 H   0  0  0  0  0  0  0  0  0  0  0  0
   -0.0591    5.2290    4.6608 H   0  0  0  0  0  0  0  0  0  0  0  0
    4.7358    3.7351    2.4124 H   0  0  0  0  0  0  0  0  0  0  0  0
    5.6998    3.2104    0.1988 H   0  0  0  0  0  0  0  0  0  0  0  0
    4.2001    2.8331   -1.7454 H   0  0  0  0  0  0  0  0  0  0  0  0
    1.7566    2.9594   -1.4562 H   0  0  0  0  0  0  0  0  0  0  0  0
   -1.0652    3.8169    2.4418 H   0  0  0  0  0  0  0  0  0  0  0  0
   -0.5870    2.1520   -0.1074 H   0  0  0  0  0  0  0  0  0  0  0  0
   -4.2673    1.7349   -0.4493 H   0  0  0  0  0  0  0  0  0  0  0  0
   -3.7318    0.9269    1.5108 H   0  0  0  0  0  0  0  0  0  0  0  0
   -2.1911    1.7271    1.5879 H   0  0  0  0  0  0  0  0  0  0  0  0
   -2.0628   -0.7854    1.6901 H   0  0  0  0  0  0  0  0  0  0  0  0
   -1.0718   -0.0788    0.4185 H   0  0  0  0  0  0  0  0  0  0  0  0
   -3.8090   -1.3886    0.0915 H   0  0  0  0  0  0  0  0  0  0  0  0
   -2.2767   -2.0358   -0.4499 H   0  0  0  0  0  0  0  0  0  0  0  0
   -4.0641   -0.4994   -1.9562 H   0  0  0  0  0  0  0  0  0  0  0  0
   -2.4263   -0.9067   -2.4168 H   0  0  0  0  0  0  0  0  0  0  0  0
   -3.0479    1.5720   -2.5285 H   0  0  0  0  0  0  0  0  0  0  0  0
   -1.5520    1.1789   -1.7112 H   0  0  0  0  0  0  0  0  0  0  0  0
   -0.6346    5.4479   -0.4965 H   0  0  0  0  0  0  0  0  0  0  0  0
   -5.3189    9.4178   -1.6849 H   0  0  0  0  0  0  0  0  0  0  0  0
   -4.0641    9.3367   -2.9306 H   0  0  0  0  0  0  0  0  0  0  0  0
   -3.7304   10.1339   -1.3764 H   0  0  0  0  0  0  0  0  0  0  0  0
  1  2  1  0  0  0  0
  1 28  1  0  0  0  0
  1 29  1  0  0  0  0
  1 30  1  0  0  0  0
  2  3  2  0  0  0  0
  2 11  1  0  0  0  0
  3  4  1  0  0  0  0
  4  5  2  0  0  0  0
  4  9  1  0  0  0  0
  5  6  1  0  0  0  0
  5 31  1  0  0  0  0
  6  7  2  0  0  0  0
  6 32  1  0  0  0  0
  7  8  1  0  0  0  0
  7 33  1  0  0  0  0
  8  9  2  0  0  0  0
  8 34  1  0  0  0  0
  9 10  1  0  0  0  0
 10 11  2  0  0  0  0
 10 12  1  0  0  0  0
 11 35  1  0  0  0  0
 12 13  1  0  0  0  0
 12 36  1  0  0  0  0
 13 14  2  3  0  0  0
 13 21  1  0  0  0  0
 14 15  1  0  0  0  0
 15 16  1  0  0  0  0
 15 20  1  0  0  0  0
 15 37  1  0  0  0  0
 16 17  1  0  0  0  0
 16 38  1  0  0  0  0
 16 39  1  0  0  0  0
 17 18  1  0  0  0  0
 17 40  1  0  0  0  0
 17 41  1  0  0  0  0
 18 19  1  0  0  0  0
 18 42  1  0  0  0  0
 18 43  1  0  0  0  0
 19 20  1  0  0  0  0
 19 44  1  0  0  0  0
 19 45  1  0  0  0  0
 20 46  1  0  0  0  0
 20 47  1  0  0  0  0
 21 22  1  0  0  0  0
 21 48  1  0  0  0  0
 22 23  2  0  0  0  0
 22 26  1  0  0  0  0
 23 24  1  0  0  0  0
 24 25  2  0  0  0  0
 25 26  1  0  0  0  0
 25 27  1  0  0  0  0
 27 49  1  0  0  0  0
 27 50  1  0  0  0  0
 27 51  1  0  0  0  0
M  END
