
 OpenBabel10072619583D

100107  0  0  0  0  0  0  0  0999 V2000
   -7.8179   -6.1663   -0.7321 C   0  0  0  0  0  0  0  0  0  0  0  0
   -6.8179   -6.9922    0.0879 C   0  0  0  0  0  0  0  0  0  0  0  0
   -6.3412   -8.1339   -0.6457 O   0  0  0  0  0  0  0  0  0  0  0  0
   -5.6511   -7.6808   -1.8175 C   0  0  0  0  0  0  0  0  0  0  0  0
   -6.6004   -6.9471   -2.7793 C   0  0  0  0  0  0  0  0  0  0  0  0
   -7.3322   -5.8755   -2.0891 N   0  0  0  0  0  0  0  0  0  0  0  0
   -6.9617   -4.5834   -2.4177 C   0  0  0  0  0  0  0  0  0  0  0  0
   -6.8605   -4.2956   -3.7032 N   0  0  0  0  0  0  0  0  0  0  0  0
   -6.5893   -3.0372   -4.0237 C   0  0  0  0  0  0  0  0  0  0  0  0
   -6.2980   -2.0911   -3.1377 N   0  0  0  0  0  0  0  0  0  0  0  0
   -6.4449   -2.4442   -1.8593 C   0  0  0  0  0  0  0  0  0  0  0  0
   -6.7830   -3.6746   -1.4776 N   0  0  0  0  0  0  0  0  0  0  0  0
   -6.2586   -1.4410   -0.8976 N   0  0  0  0  0  0  0  0  0  0  0  0
   -6.4139   -1.5070    0.4995 C   0  0  0  0  0  0  0  0  0  0  0  0
   -5.5265   -0.8211    1.3324 C   0  0  0  0  0  0  0  0  0  0  0  0
   -5.4805   -1.0488    2.7301 C   0  0  0  0  0  0  0  0  0  0  0  0
   -6.3358   -2.0025    3.3202 C   0  0  0  0  0  0  0  0  0  0  0  0
   -7.3019   -2.5988    2.4799 C   0  0  0  0  0  0  0  0  0  0  0  0
   -7.3359   -2.3541    1.1076 C   0  0  0  0  0  0  0  0  0  0  0  0
   -6.2942   -2.6589    4.6391 C   0  0  0  0  0  0  0  0  0  0  0  0
   -5.9250   -2.1840    5.8342 C   0  0  0  0  0  0  0  0  0  0  0  0
   -5.8790   -3.1019    6.9851 C   0  0  0  0  0  0  0  0  0  0  0  0
   -6.9197   -3.8234    7.5896 C   0  0  0  0  0  0  0  0  0  0  0  0
   -6.6462   -4.6736    8.6878 C   0  0  0  0  0  0  0  0  0  0  0  0
   -5.3734   -4.7489    9.2694 C   0  0  0  0  0  0  0  0  0  0  0  0
   -4.3446   -4.0042    8.6840 C   0  0  0  0  0  0  0  0  0  0  0  0
   -4.5902   -3.2306    7.5422 C   0  0  0  0  0  0  0  0  0  0  0  0
   -5.1365   -5.3976   10.4953 N   0  0  0  0  0  0  0  0  0  0  0  0
   -6.0259   -5.7306   11.5259 C   0  0  0  0  0  0  0  0  0  0  0  0
   -7.2731   -5.2787   11.5235 N   0  0  0  0  0  0  0  0  0  0  0  0
   -8.0655   -5.6054   12.5298 C   0  0  0  0  0  0  0  0  0  0  0  0
   -7.6541   -6.3872   13.5305 N   0  0  0  0  0  0  0  0  0  0  0  0
   -6.3993   -6.8254   13.4562 C   0  0  0  0  0  0  0  0  0  0  0  0
   -5.5432   -6.4935   12.4955 N   0  0  0  0  0  0  0  0  0  0  0  0
   -5.9927   -7.6821   14.4884 N   0  0  0  0  0  0  0  0  0  0  0  0
   -4.7056   -7.9643   14.9676 C   0  0  0  0  0  0  0  0  0  0  0  0
   -3.6379   -7.0815   14.7802 C   0  0  0  0  0  0  0  0  0  0  0  0
   -2.3612   -7.3888   15.2435 C   0  0  0  0  0  0  0  0  0  0  0  0
   -2.1247   -8.5978   15.8863 C   0  0  0  0  0  0  0  0  0  0  0  0
   -3.1728   -9.4943   16.0747 C   0  0  0  0  0  0  0  0  0  0  0  0
   -4.4549   -9.1819   15.6156 C   0  0  0  0  0  0  0  0  0  0  0  0
   -9.3739   -5.1516   12.5351 N   0  0  0  0  0  0  0  0  0  0  0  0
   -9.9159   -4.5267   11.3063 C   0  0  0  0  0  0  0  0  0  0  0  0
   -9.9632   -2.9920   11.3952 C   0  0  0  0  0  0  0  0  0  0  0  0
  -10.6226   -2.5570   12.6087 O   0  0  0  0  0  0  0  0  0  0  0  0
   -9.9220   -3.0590   13.7557 C   0  0  0  0  0  0  0  0  0  0  0  0
   -9.9105   -4.6014   13.7797 C   0  0  0  0  0  0  0  0  0  0  0  0
   -8.6783   -3.7756    7.1298 S   0  0  0  0  0  0  0  0  0  0  0  0
   -8.9229   -5.1523    6.7066 O   0  0  0  0  0  0  0  0  0  0  0  0
   -9.3277   -3.4160    8.3895 O   0  0  0  0  0  0  0  0  0  0  0  0
   -8.8241   -2.7785    6.0770 O   0  5  0  0  0  0  0  0  0  0  0  0
   -4.2795   -0.0218    3.6380 S   0  0  0  0  0  0  0  0  0  0  0  0
   -5.1035    0.6924    4.6108 O   0  0  0  0  0  0  0  0  0  0  0  0
   -3.3300   -0.9946    4.1721 O   0  0  0  0  0  0  0  0  0  0  0  0
   -3.7161    0.8533    2.6074 O   0  5  0  0  0  0  0  0  0  0  0  0
   -6.5762   -2.6907   -5.3815 N   0  0  0  0  0  0  0  0  0  0  0  0
   -7.2635   -3.3439   -6.4221 C   0  0  0  0  0  0  0  0  0  0  0  0
   -8.4726   -4.0233   -6.2045 C   0  0  0  0  0  0  0  0  0  0  0  0
   -9.0804   -4.7685   -7.2172 C   0  0  0  0  0  0  0  0  0  0  0  0
   -8.4845   -4.8441   -8.4732 C   0  0  0  0  0  0  0  0  0  0  0  0
   -7.2954   -4.1589   -8.7172 C   0  0  0  0  0  0  0  0  0  0  0  0
   -6.6961   -3.4039   -7.7007 C   0  0  0  0  0  0  0  0  0  0  0  0
   -8.0929   -5.2664   -0.1698 H   0  0  0  0  0  0  0  0  0  0  0  0
   -8.7383   -6.7564   -0.8342 H   0  0  0  0  0  0  0  0  0  0  0  0
   -7.2986   -7.3640    0.9986 H   0  0  0  0  0  0  0  0  0  0  0  0
   -5.9579   -6.3914    0.3973 H   0  0  0  0  0  0  0  0  0  0  0  0
   -5.2197   -8.5579   -2.3102 H   0  0  0  0  0  0  0  0  0  0  0  0
   -4.8155   -7.0417   -1.5115 H   0  0  0  0  0  0  0  0  0  0  0  0
   -7.3277   -7.6670   -3.1748 H   0  0  0  0  0  0  0  0  0  0  0  0
   -6.0108   -6.5846   -3.6319 H   0  0  0  0  0  0  0  0  0  0  0  0
   -5.8050   -0.6226   -1.2745 H   0  0  0  0  0  0  0  0  0  0  0  0
   -4.8021   -0.1459    0.8837 H   0  0  0  0  0  0  0  0  0  0  0  0
   -8.0396   -3.2908    2.8915 H   0  0  0  0  0  0  0  0  0  0  0  0
   -8.0979   -2.8521    0.5183 H   0  0  0  0  0  0  0  0  0  0  0  0
   -6.6541   -3.6951    4.6203 H   0  0  0  0  0  0  0  0  0  0  0  0
   -5.5438   -1.1745    5.9940 H   0  0  0  0  0  0  0  0  0  0  0  0
   -7.4690   -5.2575    9.0989 H   0  0  0  0  0  0  0  0  0  0  0  0
   -3.3495   -3.9729    9.1255 H   0  0  0  0  0  0  0  0  0  0  0  0
   -3.7632   -2.6926    7.0773 H   0  0  0  0  0  0  0  0  0  0  0  0
   -4.2207   -5.8022   10.6157 H   0  0  0  0  0  0  0  0  0  0  0  0
   -6.7554   -7.8175   15.1354 H   0  0  0  0  0  0  0  0  0  0  0  0
   -3.7986   -6.1235   14.2918 H   0  0  0  0  0  0  0  0  0  0  0  0
   -1.5548   -6.6813   15.0908 H   0  0  0  0  0  0  0  0  0  0  0  0
   -1.1262   -8.8428   16.2316 H   0  0  0  0  0  0  0  0  0  0  0  0
   -2.9901  -10.4452   16.5631 H   0  0  0  0  0  0  0  0  0  0  0  0
   -5.2567   -9.9059   15.7474 H   0  0  0  0  0  0  0  0  0  0  0  0
  -10.9510   -4.8770   11.2055 H   0  0  0  0  0  0  0  0  0  0  0  0
   -9.4090   -4.8612   10.3983 H   0  0  0  0  0  0  0  0  0  0  0  0
  -10.5570   -2.6032   10.5600 H   0  0  0  0  0  0  0  0  0  0  0  0
   -8.9643   -2.5401   11.3541 H   0  0  0  0  0  0  0  0  0  0  0  0
  -10.4625   -2.6963   14.6372 H   0  0  0  0  0  0  0  0  0  0  0  0
   -8.9096   -2.6330   13.7832 H   0  0  0  0  0  0  0  0  0  0  0  0
  -10.9482   -4.9494   13.8739 H   0  0  0  0  0  0  0  0  0  0  0  0
   -9.3740   -4.9645   14.6633 H   0  0  0  0  0  0  0  0  0  0  0  0
   -6.3260   -1.7225   -5.5153 H   0  0  0  0  0  0  0  0  0  0  0  0
   -8.9549   -3.9878   -5.2278 H   0  0  0  0  0  0  0  0  0  0  0  0
   -9.9997   -5.3084   -7.0078 H   0  0  0  0  0  0  0  0  0  0  0  0
   -8.9378   -5.4493   -9.2525 H   0  0  0  0  0  0  0  0  0  0  0  0
   -6.8137   -4.2393   -9.6881 H   0  0  0  0  0  0  0  0  0  0  0  0
   -5.7474   -2.9124   -7.8950 H   0  0  0  0  0  0  0  0  0  0  0  0
  1  2  1  0  0  0  0
  1  6  1  0  0  0  0
  1 63  1  0  0  0  0
  1 64  1  0  0  0  0
  2  3  1  0  0  0  0
  2 65  1  0  0  0  0
  2 66  1  0  0  0  0
  3  4  1  0  0  0  0
  4  5  1  0  0  0  0
  4 67  1  0  0  0  0
  4 68  1  0  0  0  0
  5  6  1  0  0  0  0
  5 69  1  0  0  0  0
  5 70  1  0  0  0  0
  6  7  1  0  0  0  0
  7  8  2  0  0  0  0
  7 12  1  0  0  0  0
  8  9  1  0  0  0  0
  9 10  2  0  0  0  0
  9 56  1  0  0  0  0
 10 11  1  0  0  0  0
 11 12  2  0  0  0  0
 11 13  1  0  0  0  0
 13 14  1  0  0  0  0
 13 71  1  0  0  0  0
 14 15  2  0  0  0  0
 14 19  1  0  0  0  0
 15 16  1  0  0  0  0
 15 72  1  0  0  0  0
 16 17  2  0  0  0  0
 16 52  1  0  0  0  0
 17 18  1  0  0  0  0
 17 20  1  0  0  0  0
 18 19  2  0  0  0  0
 18 73  1  0  0  0  0
 19 74  1  0  0  0  0
 20 21  2  0  0  0  0
 20 75  1  0  0  0  0
 21 22  1  0  0  0  0
 21 76  1  0  0  0  0
 22 23  2  0  0  0  0
 22 27  1  0  0  0  0
 23 24  1  0  0  0  0
 23 48  1  0  0  0  0
 24 25  2  0  0  0  0
 24 77  1  0  0  0  0
 25 26  1  0  0  0  0
 25 28  1  0  0  0  0
 26 27  2  0  0  0  0
 26 78  1  0  0  0  0
 27 79  1  0  0  0  0
 28 29  1  0  0  0  0
 28 80  1  0  0  0  0
 29 30  2  0  0  0  0
 29 34  1  0  0  0  0
 30 31  1  0  0  0  0
 31 32  2  0  0  0  0
 31 42  1  0  0  0  0
 32 33  1  0  0  0  0
 33 34  2  0  0  0  0
 33 35  1  0  0  0  0
 35 36  1  0  0  0  0
 35 81  1  0  0  0  0
 36 37  2  0  0  0  0
 36 41  1  0  0  0  0
 37 38  1  0  0  0  0
 37 82  1  0  0  0  0
 38 39  2  0  0  0  0
 38 83  1  0  0  0  0
 39 40  1  0  0  0  0
 39 84  1  0  0  0  0
 40 41  2  0  0  0  0
 40 85  1  0  0  0  0
 41 86  1  0  0  0  0
 42 43  1  0  0  0  0
 42 47  1  0  0  0  0
 43 44  1  0  0  0  0
 43 87  1  0  0  0  0
 43 88  1  0  0  0  0
 44 45  1  0  0  0  0
 44 89  1  0  0  0  0
 44 90  1  0  0  0  0
 45 46  1  0  0  0  0
 46 47  1  0  0  0  0
 46 91  1  0  0  0  0
 46 92  1  0  0  0  0
 47 93  1  0  0  0  0
 47 94  1  0  0  0  0
 48 49  2  0  0  0  0
 48 50  2  0  0  0  0
 48 51  1  0  0  0  0
 52 53  2  0  0  0  0
 52 54  2  0  0  0  0
 52 55  1  0  0  0  0
 56 57  1  0  0  0  0
 56 95  1  0  0  0  0
 57 58  2  0  0  0  0
 57 62  1  0  0  0  0
 58 59  1  0  0  0  0
 58 96  1  0  0  0  0
 59 60  2  0  0  0  0
 59 97  1  0  0  0  0
 60 61  1  0  0  0  0
 60 98  1  0  0  0  0
 61 62  2  0  0  0  0
 61 99  1  0  0  0  0
 62100  1  0  0  0  0
M  CHG  2  51  -1  55  -1
M  END
