
 OpenBabel10072620113D

140142  0  0  0  0  0  0  0  0999 V2000
   12.0907  -19.7295    6.7480 C   0  0  0  0  0  0  0  0  0  0  0  0
   12.1421  -18.6050    7.7709 C   0  0  0  0  0  0  0  0  0  0  0  0
   12.9079  -17.3944    7.2357 C   0  0  0  0  0  0  0  0  0  0  0  0
   12.9601  -16.2612    8.2641 C   0  0  0  0  0  0  0  0  0  0  0  0
   13.7284  -15.0530    7.7215 C   0  0  0  0  0  0  0  0  0  0  0  0
   13.7866  -13.9145    8.7429 C   0  0  0  0  0  0  0  0  0  0  0  0
   14.5580  -12.7128    8.1916 C   0  0  0  0  0  0  0  0  0  0  0  0
   14.6200  -11.5733    9.2099 C   0  0  0  0  0  0  0  0  0  0  0  0
   15.3927  -10.3733    8.6577 C   0  0  0  0  0  0  0  0  0  0  0  0
   15.4500   -9.2381    9.6804 C   0  0  0  0  0  0  0  0  0  0  0  0
   16.2151   -8.0292    9.1394 C   0  0  0  0  0  0  0  0  0  0  0  0
   16.2512   -6.9014   10.1719 C   0  0  0  0  0  0  0  0  0  0  0  0
   16.9931   -5.6751    9.6392 C   0  0  0  0  0  0  0  0  0  0  0  0
   17.0184   -4.5556   10.6807 C   0  0  0  0  0  0  0  0  0  0  0  0
   17.7379   -3.3134   10.1534 C   0  0  0  0  0  0  0  0  0  0  0  0
   17.7981   -2.2202   11.2212 C   0  0  0  0  0  0  0  0  0  0  0  0
   18.5166   -0.9705   10.7043 C   0  0  0  0  0  0  0  0  0  0  0  0
   18.5664    0.1382   11.7573 C   0  0  0  0  0  0  0  0  0  0  0  0
   19.3552   -0.2282   12.9194 N   0  0  0  0  0  0  0  0  0  0  0  0
   20.7350   -0.1403   12.8828 C   0  0  0  0  0  0  0  0  0  0  0  0
   21.3526    0.2212   11.8913 O   0  0  0  0  0  0  0  0  0  0  0  0
   21.2717   -0.5601   14.0830 N   0  0  0  0  0  0  0  0  0  0  0  0
   22.6272   -0.4771   14.4627 C   0  0  0  0  0  0  0  0  0  0  0  0
   23.5217    0.4336   13.8933 C   0  0  0  0  0  0  0  0  0  0  0  0
   24.8591    0.4708   14.3030 C   0  0  0  0  0  0  0  0  0  0  0  0
   25.3067   -0.4339   15.2727 C   0  0  0  0  0  0  0  0  0  0  0  0
   24.4181   -1.3344   15.8742 C   0  0  0  0  0  0  0  0  0  0  0  0
   23.0742   -1.3349   15.4749 C   0  0  0  0  0  0  0  0  0  0  0  0
   24.8864   -2.2893   16.9331 C   0  0  0  0  0  0  0  0  0  0  0  0
   25.8028    1.3571   13.7445 N   0  0  0  0  0  0  0  0  0  0  0  0
   25.5146    2.5391   13.0953 C   0  0  0  0  0  0  0  0  0  0  0  0
   24.4398    3.1227   13.0895 O   0  0  0  0  0  0  0  0  0  0  0  0
   26.6388    3.0258   12.4538 N   0  0  0  0  0  0  0  0  0  0  0  0
   26.5453    4.2272   11.6415 C   0  0  0  0  0  0  0  0  0  0  0  0
   26.4909    5.5067   12.4781 C   0  0  0  0  0  0  0  0  0  0  0  0
   27.8064    5.7528   13.2205 C   0  0  0  0  0  0  0  0  0  0  0  0
   27.7546    6.9489   14.1726 C   0  0  0  0  0  0  0  0  0  0  0  0
   26.7531    6.8373   15.3278 C   0  0  0  0  0  0  0  0  0  0  0  0
   26.8867    5.5401   16.1257 C   0  0  0  0  0  0  0  0  0  0  0  0
   26.1611    5.5882   17.3798 N   0  0  0  0  0  0  0  0  0  0  0  0
   26.7195    6.1974   18.4872 C   0  0  0  0  0  0  0  0  0  0  0  0
   27.8420    6.6839   18.4804 O   0  0  0  0  0  0  0  0  0  0  0  0
   25.8680    6.1116   19.5688 N   0  0  0  0  0  0  0  0  0  0  0  0
   26.0445    6.7430   20.8179 C   0  0  0  0  0  0  0  0  0  0  0  0
   26.8360    7.8836   20.9893 C   0  0  0  0  0  0  0  0  0  0  0  0
   26.9738    8.4756   22.2499 C   0  0  0  0  0  0  0  0  0  0  0  0
   26.3311    7.8978   23.3520 C   0  0  0  0  0  0  0  0  0  0  0  0
   25.5189    6.7675   23.1959 C   0  0  0  0  0  0  0  0  0  0  0  0
   25.3649    6.2098   21.9193 C   0  0  0  0  0  0  0  0  0  0  0  0
   24.7993    6.1667   24.3668 C   0  0  0  0  0  0  0  0  0  0  0  0
   27.7657    9.6206   22.4852 N   0  0  0  0  0  0  0  0  0  0  0  0
   28.2129   10.5161   21.5365 C   0  0  0  0  0  0  0  0  0  0  0  0
   27.8641   10.5705   20.3646 O   0  0  0  0  0  0  0  0  0  0  0  0
   29.1311   11.3937   22.0752 N   0  0  0  0  0  0  0  0  0  0  0  0
   29.7415   12.4445   21.2746 C   0  0  0  0  0  0  0  0  0  0  0  0
   31.1388   12.7769   21.8087 C   0  0  0  0  0  0  0  0  0  0  0  0
   31.7840   13.9034   21.0077 C   0  0  0  0  0  0  0  0  0  0  0  0
   30.9004   15.1469   20.9916 C   0  0  0  0  0  0  0  0  0  0  0  0
   29.4997   14.8361   20.4715 C   0  0  0  0  0  0  0  0  0  0  0  0
   28.8495   13.6930   21.2478 C   0  0  0  0  0  0  0  0  0  0  0  0
   11.5389  -20.5842    7.1515 H   0  0  0  0  0  0  0  0  0  0  0  0
   13.0980  -20.0689    6.4864 H   0  0  0  0  0  0  0  0  0  0  0  0
   11.5888  -19.4040    5.8312 H   0  0  0  0  0  0  0  0  0  0  0  0
   12.6202  -18.9736    8.6859 H   0  0  0  0  0  0  0  0  0  0  0  0
   11.1190  -18.3121    8.0341 H   0  0  0  0  0  0  0  0  0  0  0  0
   12.4279  -17.0341    6.3175 H   0  0  0  0  0  0  0  0  0  0  0  0
   13.9287  -17.6952    6.9697 H   0  0  0  0  0  0  0  0  0  0  0  0
   13.4410  -16.6204    9.1823 H   0  0  0  0  0  0  0  0  0  0  0  0
   11.9397  -15.9589    8.5297 H   0  0  0  0  0  0  0  0  0  0  0  0
   13.2469  -14.6960    6.8029 H   0  0  0  0  0  0  0  0  0  0  0  0
   14.7479  -15.3577    7.4550 H   0  0  0  0  0  0  0  0  0  0  0  0
   14.2681  -14.2696    9.6623 H   0  0  0  0  0  0  0  0  0  0  0  0
   12.7679  -13.6065    9.0089 H   0  0  0  0  0  0  0  0  0  0  0  0
   14.0758  -12.3570    7.2728 H   0  0  0  0  0  0  0  0  0  0  0  0
   15.5762  -13.0211    7.9244 H   0  0  0  0  0  0  0  0  0  0  0  0
   15.1014  -11.9277   10.1297 H   0  0  0  0  0  0  0  0  0  0  0  0
   13.6022  -11.2627    9.4765 H   0  0  0  0  0  0  0  0  0  0  0  0
   14.9117  -10.0166    7.7386 H   0  0  0  0  0  0  0  0  0  0  0  0
   16.4115  -10.6808    8.3923 H   0  0  0  0  0  0  0  0  0  0  0  0
   15.9330   -9.5952   10.5982 H   0  0  0  0  0  0  0  0  0  0  0  0
   14.4303   -8.9355    9.9487 H   0  0  0  0  0  0  0  0  0  0  0  0
   15.7370   -7.6716    8.2192 H   0  0  0  0  0  0  0  0  0  0  0  0
   17.2390   -8.3250    8.8796 H   0  0  0  0  0  0  0  0  0  0  0  0
   16.7393   -7.2581   11.0875 H   0  0  0  0  0  0  0  0  0  0  0  0
   15.2258   -6.6194   10.4413 H   0  0  0  0  0  0  0  0  0  0  0  0
   16.5052   -5.3182    8.7240 H   0  0  0  0  0  0  0  0  0  0  0  0
   18.0201   -5.9526    9.3726 H   0  0  0  0  0  0  0  0  0  0  0  0
   17.5205   -4.9131   11.5882 H   0  0  0  0  0  0  0  0  0  0  0  0
   15.9915   -4.2913   10.9622 H   0  0  0  0  0  0  0  0  0  0  0  0
   17.2178   -2.9344    9.2651 H   0  0  0  0  0  0  0  0  0  0  0  0
   18.7561   -3.5799    9.8451 H   0  0  0  0  0  0  0  0  0  0  0  0
   18.3166   -2.6091   12.1058 H   0  0  0  0  0  0  0  0  0  0  0  0
   16.7809   -1.9547   11.5344 H   0  0  0  0  0  0  0  0  0  0  0  0
   17.9884   -0.5914    9.8207 H   0  0  0  0  0  0  0  0  0  0  0  0
   19.5306   -1.2370   10.3830 H   0  0  0  0  0  0  0  0  0  0  0  0
   17.5550    0.3685   12.1093 H   0  0  0  0  0  0  0  0  0  0  0  0
   18.9846    1.0515   11.3200 H   0  0  0  0  0  0  0  0  0  0  0  0
   18.9529   -0.0119   13.8197 H   0  0  0  0  0  0  0  0  0  0  0  0
   20.6933   -1.2154   14.5863 H   0  0  0  0  0  0  0  0  0  0  0  0
   23.1783    1.1130   13.1187 H   0  0  0  0  0  0  0  0  0  0  0  0
   26.3489   -0.4288   15.5825 H   0  0  0  0  0  0  0  0  0  0  0  0
   22.3842   -2.0354   15.9395 H   0  0  0  0  0  0  0  0  0  0  0  0
   25.9648   -2.2033   17.1032 H   0  0  0  0  0  0  0  0  0  0  0  0
   24.6790   -3.3213   16.6311 H   0  0  0  0  0  0  0  0  0  0  0  0
   24.3784   -2.0826   17.8805 H   0  0  0  0  0  0  0  0  0  0  0  0
   26.7632    1.2606   14.0388 H   0  0  0  0  0  0  0  0  0  0  0  0
   27.2507    2.3028   12.1036 H   0  0  0  0  0  0  0  0  0  0  0  0
   25.6501    4.1519   11.0140 H   0  0  0  0  0  0  0  0  0  0  0  0
   27.4183    4.2432   10.9805 H   0  0  0  0  0  0  0  0  0  0  0  0
   25.6540    5.4526   13.1810 H   0  0  0  0  0  0  0  0  0  0  0  0
   26.2944    6.3567   11.8130 H   0  0  0  0  0  0  0  0  0  0  0  0
   28.5958    5.9355   12.4804 H   0  0  0  0  0  0  0  0  0  0  0  0
   28.1123    4.8575   13.7728 H   0  0  0  0  0  0  0  0  0  0  0  0
   27.5333    7.8581   13.6011 H   0  0  0  0  0  0  0  0  0  0  0  0
   28.7573    7.0877   14.5962 H   0  0  0  0  0  0  0  0  0  0  0  0
   25.7271    6.9291   14.9512 H   0  0  0  0  0  0  0  0  0  0  0  0
   26.9040    7.7008   15.9873 H   0  0  0  0  0  0  0  0  0  0  0  0
   27.9393    5.3249   16.3404 H   0  0  0  0  0  0  0  0  0  0  0  0
   26.4751    4.6979   15.5608 H   0  0  0  0  0  0  0  0  0  0  0  0
   25.1534    5.6104   17.3215 H   0  0  0  0  0  0  0  0  0  0  0  0
   25.2264    5.3347   19.5309 H   0  0  0  0  0  0  0  0  0  0  0  0
   27.3491    8.3116   20.1337 H   0  0  0  0  0  0  0  0  0  0  0  0
   26.4420    8.3397   24.3393 H   0  0  0  0  0  0  0  0  0  0  0  0
   24.7314    5.3345   21.7980 H   0  0  0  0  0  0  0  0  0  0  0  0
   25.1195    6.6188   25.3110 H   0  0  0  0  0  0  0  0  0  0  0  0
   25.0065    5.0936   24.4285 H   0  0  0  0  0  0  0  0  0  0  0  0
   23.7206    6.3192   24.2633 H   0  0  0  0  0  0  0  0  0  0  0  0
   27.8661    9.9134   23.4436 H   0  0  0  0  0  0  0  0  0  0  0  0
   29.4052   11.2910   23.0392 H   0  0  0  0  0  0  0  0  0  0  0  0
   29.8442   12.0699   20.2477 H   0  0  0  0  0  0  0  0  0  0  0  0
   31.7764   11.8851   21.7705 H   0  0  0  0  0  0  0  0  0  0  0  0
   31.0766   13.0694   22.8652 H   0  0  0  0  0  0  0  0  0  0  0  0
   31.9613   13.5648   19.9793 H   0  0  0  0  0  0  0  0  0  0  0  0
   32.7614   14.1487   21.4377 H   0  0  0  0  0  0  0  0  0  0  0  0
   31.3638   15.9213   20.3704 H   0  0  0  0  0  0  0  0  0  0  0  0
   30.8274   15.5523   22.0081 H   0  0  0  0  0  0  0  0  0  0  0  0
   29.5545   14.5710   19.4085 H   0  0  0  0  0  0  0  0  0  0  0  0
   28.8741   15.7328   20.5441 H   0  0  0  0  0  0  0  0  0  0  0  0
   27.8769   13.4560   20.7990 H   0  0  0  0  0  0  0  0  0  0  0  0
   28.6449   14.0239   22.2745 H   0  0  0  0  0  0  0  0  0  0  0  0
  1  2  1  0  0  0  0
  1 61  1  0  0  0  0
  1 62  1  0  0  0  0
  1 63  1  0  0  0  0
  2  3  1  0  0  0  0
  2 64  1  0  0  0  0
  2 65  1  0  0  0  0
  3  4  1  0  0  0  0
  3 66  1  0  0  0  0
  3 67  1  0  0  0  0
  4  5  1  0  0  0  0
  4 68  1  0  0  0  0
  4 69  1  0  0  0  0
  5  6  1  0  0  0  0
  5 70  1  0  0  0  0
  5 71  1  0  0  0  0
  6  7  1  0  0  0  0
  6 72  1  0  0  0  0
  6 73  1  0  0  0  0
  7  8  1  0  0  0  0
  7 74  1  0  0  0  0
  7 75  1  0  0  0  0
  8  9  1  0  0  0  0
  8 76  1  0  0  0  0
  8 77  1  0  0  0  0
  9 10  1  0  0  0  0
  9 78  1  0  0  0  0
  9 79  1  0  0  0  0
 10 11  1  0  0  0  0
 10 80  1  0  0  0  0
 10 81  1  0  0  0  0
 11 12  1  0  0  0  0
 11 82  1  0  0  0  0
 11 83  1  0  0  0  0
 12 13  1  0  0  0  0
 12 84  1  0  0  0  0
 12 85  1  0  0  0  0
 13 14  1  0  0  0  0
 13 86  1  0  0  0  0
 13 87  1  0  0  0  0
 14 15  1  0  0  0  0
 14 88  1  0  0  0  0
 14 89  1  0  0  0  0
 15 16  1  0  0  0  0
 15 90  1  0  0  0  0
 15 91  1  0  0  0  0
 16 17  1  0  0  0  0
 16 92  1  0  0  0  0
 16 93  1  0  0  0  0
 17 18  1  0  0  0  0
 17 94  1  0  0  0  0
 17 95  1  0  0  0  0
 18 19  1  0  0  0  0
 18 96  1  0  0  0  0
 18 97  1  0  0  0  0
 19 20  1  0  0  0  0
 19 98  1  0  0  0  0
 20 21  2  0  0  0  0
 20 22  1  0  0  0  0
 22 23  1  0  0  0  0
 22 99  1  0  0  0  0
 23 24  2  0  0  0  0
 23 28  1  0  0  0  0
 24 25  1  0  0  0  0
 24100  1  0  0  0  0
 25 26  2  0  0  0  0
 25 30  1  0  0  0  0
 26 27  1  0  0  0  0
 26101  1  0  0  0  0
 27 28  2  0  0  0  0
 27 29  1  0  0  0  0
 28102  1  0  0  0  0
 29103  1  0  0  0  0
 29104  1  0  0  0  0
 29105  1  0  0  0  0
 30 31  1  0  0  0  0
 30106  1  0  0  0  0
 31 32  2  0  0  0  0
 31 33  1  0  0  0  0
 33 34  1  0  0  0  0
 33107  1  0  0  0  0
 34 35  1  0  0  0  0
 34108  1  0  0  0  0
 34109  1  0  0  0  0
 35 36  1  0  0  0  0
 35110  1  0  0  0  0
 35111  1  0  0  0  0
 36 37  1  0  0  0  0
 36112  1  0  0  0  0
 36113  1  0  0  0  0
 37 38  1  0  0  0  0
 37114  1  0  0  0  0
 37115  1  0  0  0  0
 38 39  1  0  0  0  0
 38116  1  0  0  0  0
 38117  1  0  0  0  0
 39 40  1  0  0  0  0
 39118  1  0  0  0  0
 39119  1  0  0  0  0
 40 41  1  0  0  0  0
 40120  1  0  0  0  0
 41 42  2  0  0  0  0
 41 43  1  0  0  0  0
 43 44  1  0  0  0  0
 43121  1  0  0  0  0
 44 45  2  0  0  0  0
 44 49  1  0  0  0  0
 45 46  1  0  0  0  0
 45122  1  0  0  0  0
 46 47  2  0  0  0  0
 46 51  1  0  0  0  0
 47 48  1  0  0  0  0
 47123  1  0  0  0  0
 48 49  2  0  0  0  0
 48 50  1  0  0  0  0
 49124  1  0  0  0  0
 50125  1  0  0  0  0
 50126  1  0  0  0  0
 50127  1  0  0  0  0
 51 52  1  0  0  0  0
 51128  1  0  0  0  0
 52 53  2  0  0  0  0
 52 54  1  0  0  0  0
 54 55  1  0  0  0  0
 54129  1  0  0  0  0
 55 56  1  0  0  0  0
 55 60  1  0  0  0  0
 55130  1  0  0  0  0
 56 57  1  0  0  0  0
 56131  1  0  0  0  0
 56132  1  0  0  0  0
 57 58  1  0  0  0  0
 57133  1  0  0  0  0
 57134  1  0  0  0  0
 58 59  1  0  0  0  0
 58135  1  0  0  0  0
 58136  1  0  0  0  0
 59 60  1  0  0  0  0
 59137  1  0  0  0  0
 59138  1  0  0  0  0
 60139  1  0  0  0  0
 60140  1  0  0  0  0
M  END
