
 OpenBabel10072616323D

 38 40  0  0  0  0  0  0  0  0999 V2000
    0.1809   -0.7239   -0.1581 C   0  0  0  0  0  0  0  0  0  0  0  0
    1.1057   -1.0705    0.8213 C   0  0  0  0  0  0  0  0  0  0  0  0
    1.9561   -0.1005    1.3822 C   0  0  0  0  0  0  0  0  0  0  0  0
    1.8982    1.2491    0.9661 C   0  0  0  0  0  0  0  0  0  0  0  0
    0.9486    1.5601   -0.0094 C   0  0  0  0  0  0  0  0  0  0  0  0
    0.0986    0.5963   -0.5760 C   0  0  0  0  0  0  0  0  0  0  0  0
    0.7944    3.2330   -0.5673 S   0  0  0  0  0  0  0  0  0  0  0  0
    0.2006    3.1979   -1.8891 O   0  0  0  0  0  0  0  0  0  0  0  0
    0.1948    3.9920    0.5061 O   0  0  0  0  0  0  0  0  0  0  0  0
    2.3943    3.7675   -0.7606 N   0  0  0  0  0  0  0  0  0  0  0  0
    3.1574    3.1812   -1.8737 C   0  0  0  0  0  0  0  0  0  0  0  0
    4.5147    3.8733   -1.9576 C   0  0  0  0  0  0  0  0  0  0  0  0
    5.3300    3.3278   -3.1264 C   0  0  0  0  0  0  0  0  0  0  0  0
    6.6330    3.9529   -3.2285 N   0  0  0  0  0  0  0  0  0  0  0  0
    6.9831    4.9635   -4.0781 C   0  0  0  0  0  0  0  0  0  0  0  0
    8.3123    5.2015   -3.8140 C   0  0  0  0  0  0  0  0  0  0  0  0
    8.7738    4.3565   -2.8374 N   0  0  0  0  0  0  0  0  0  0  0  0
    7.7423    3.6122   -2.5087 C   0  0  0  0  0  0  0  0  0  0  0  0
    2.7466    2.1719    1.4874 N   0  0  0  0  0  0  0  0  0  0  0  0
    3.6201    1.7899    2.4471 C   0  0  0  0  0  0  0  0  0  0  0  0
    3.7276    0.4981    2.9142 C   0  0  0  0  0  0  0  0  0  0  0  0
    2.8849   -0.4591    2.3680 C   0  0  0  0  0  0  0  0  0  0  0  0
   -0.4745   -1.4780   -0.5880 H   0  0  0  0  0  0  0  0  0  0  0  0
    1.1604   -2.1077    1.1476 H   0  0  0  0  0  0  0  0  0  0  0  0
   -0.6302    0.8763   -1.3346 H   0  0  0  0  0  0  0  0  0  0  0  0
    2.8513    3.6669    0.1576 H   0  0  0  0  0  0  0  0  0  0  0  0
    2.6174    3.3277   -2.8149 H   0  0  0  0  0  0  0  0  0  0  0  0
    3.2993    2.1082   -1.7073 H   0  0  0  0  0  0  0  0  0  0  0  0
    5.0618    3.7319   -1.0163 H   0  0  0  0  0  0  0  0  0  0  0  0
    4.3769    4.9565   -2.0720 H   0  0  0  0  0  0  0  0  0  0  0  0
    4.8079    3.4934   -4.0762 H   0  0  0  0  0  0  0  0  0  0  0  0
    5.4938    2.2489   -3.0219 H   0  0  0  0  0  0  0  0  0  0  0  0
    6.2907    5.4174   -4.7734 H   0  0  0  0  0  0  0  0  0  0  0  0
    8.9612    5.9352   -4.2747 H   0  0  0  0  0  0  0  0  0  0  0  0
    7.7463    2.8268   -1.7644 H   0  0  0  0  0  0  0  0  0  0  0  0
    4.2514    2.5810    2.8431 H   0  0  0  0  0  0  0  0  0  0  0  0
    4.4462    0.2401    3.6842 H   0  0  0  0  0  0  0  0  0  0  0  0
    2.9516   -1.4859    2.7200 H   0  0  0  0  0  0  0  0  0  0  0  0
  1  2  2  0  0  0  0
  1  6  1  0  0  0  0
  1 23  1  0  0  0  0
  2  3  1  0  0  0  0
  2 24  1  0  0  0  0
  3  4  2  0  0  0  0
  3 22  1  0  0  0  0
  4  5  1  0  0  0  0
  4 19  1  0  0  0  0
  5  6  2  0  0  0  0
  5  7  1  0  0  0  0
  6 25  1  0  0  0  0
  7  8  2  0  0  0  0
  7  9  2  0  0  0  0
  7 10  1  0  0  0  0
 10 11  1  0  0  0  0
 10 26  1  0  0  0  0
 11 12  1  0  0  0  0
 11 27  1  0  0  0  0
 11 28  1  0  0  0  0
 12 13  1  0  0  0  0
 12 29  1  0  0  0  0
 12 30  1  0  0  0  0
 13 14  1  0  0  0  0
 13 31  1  0  0  0  0
 13 32  1  0  0  0  0
 14 15  1  0  0  0  0
 14 18  1  0  0  0  0
 15 16  2  0  0  0  0
 15 33  1  0  0  0  0
 16 17  1  0  0  0  0
 16 34  1  0  0  0  0
 17 18  2  0  0  0  0
 18 35  1  0  0  0  0
 19 20  2  0  0  0  0
 20 21  1  0  0  0  0
 20 36  1  0  0  0  0
 21 22  2  0  0  0  0
 21 37  1  0  0  0  0
 22 38  1  0  0  0  0
M  END
