
 OpenBabel10072620093D

 39 42  0  0  0  0  0  0  0  0999 V2000
    1.2807   -2.0304   -1.8815 C   0  0  0  0  0  0  0  0  0  0  0  0
    0.3398   -1.8630   -2.8937 C   0  0  0  0  0  0  0  0  0  0  0  0
   -0.7955   -1.0837   -2.6693 C   0  0  0  0  0  0  0  0  0  0  0  0
   -1.0023   -0.4612   -1.4286 C   0  0  0  0  0  0  0  0  0  0  0  0
   -2.1381    0.3259   -1.1946 C   0  0  0  0  0  0  0  0  0  0  0  0
   -2.3287    0.9265    0.0539 C   0  0  0  0  0  0  0  0  0  0  0  0
   -1.3863    0.7772    1.0715 C   0  0  0  0  0  0  0  0  0  0  0  0
   -0.2504   -0.0016    0.8435 C   0  0  0  0  0  0  0  0  0  0  0  0
   -0.0458   -0.6293   -0.3979 C   0  0  0  0  0  0  0  0  0  0  0  0
    1.0904   -1.4169   -0.6414 C   0  0  0  0  0  0  0  0  0  0  0  0
   -3.7797    1.9139    0.3190 S   0  0  0  0  0  0  0  0  0  0  0  0
   -3.6509    2.5857    1.5932 O   0  0  0  0  0  0  0  0  0  0  0  0
   -4.0487    2.6388   -0.9027 O   0  0  0  0  0  0  0  0  0  0  0  0
   -4.9815    0.7620    0.4683 N   0  0  0  0  0  0  0  0  0  0  0  0
   -4.9498   -0.2067    1.5678 C   0  0  0  0  0  0  0  0  0  0  0  0
   -6.2927   -0.9227    1.7159 C   0  0  0  0  0  0  0  0  0  0  0  0
   -7.4514   -0.0546    2.0826 C   0  0  0  0  0  0  0  0  0  0  0  0
   -7.4831    1.1809    2.7215 C   0  0  0  0  0  0  0  0  0  0  0  0
   -8.8057    1.4943    2.8004 N   0  0  0  0  0  0  0  0  0  0  0  0
   -9.5672    2.5324    3.2849 C   0  0  0  0  0  0  0  0  0  0  0  0
  -10.8794    2.3090    3.0955 C   0  0  0  0  0  0  0  0  0  0  0  0
  -11.2088    0.7611    2.2916 S   0  0  0  0  0  0  0  0  0  0  0  0
   -9.4982    0.4671    2.2375 C   0  0  0  0  0  0  0  0  0  0  0  0
   -8.7379   -0.4941    1.7914 N   0  0  0  0  0  0  0  0  0  0  0  0
    2.1668   -2.6351   -2.0573 H   0  0  0  0  0  0  0  0  0  0  0  0
    0.4895   -2.3385   -3.8600 H   0  0  0  0  0  0  0  0  0  0  0  0
   -1.5180   -0.9652   -3.4742 H   0  0  0  0  0  0  0  0  0  0  0  0
   -2.8730    0.4767   -1.9832 H   0  0  0  0  0  0  0  0  0  0  0  0
   -1.5226    1.2606    2.0365 H   0  0  0  0  0  0  0  0  0  0  0  0
    0.4824   -0.1125    1.6405 H   0  0  0  0  0  0  0  0  0  0  0  0
    1.8395   -1.5583    0.1349 H   0  0  0  0  0  0  0  0  0  0  0  0
   -5.5022    0.5557   -0.3830 H   0  0  0  0  0  0  0  0  0  0  0  0
   -4.6812    0.2899    2.5059 H   0  0  0  0  0  0  0  0  0  0  0  0
   -4.1843   -0.9593    1.3508 H   0  0  0  0  0  0  0  0  0  0  0  0
   -6.1948   -1.6977    2.4861 H   0  0  0  0  0  0  0  0  0  0  0  0
   -6.5275   -1.4403    0.7769 H   0  0  0  0  0  0  0  0  0  0  0  0
   -6.7052    1.8342    3.0908 H   0  0  0  0  0  0  0  0  0  0  0  0
   -9.1056    3.3909    3.7474 H   0  0  0  0  0  0  0  0  0  0  0  0
  -11.6814    2.9751    3.3847 H   0  0  0  0  0  0  0  0  0  0  0  0
  1  2  2  0  0  0  0
  1 10  1  0  0  0  0
  1 25  1  0  0  0  0
  2  3  1  0  0  0  0
  2 26  1  0  0  0  0
  3  4  2  0  0  0  0
  3 27  1  0  0  0  0
  4  5  1  0  0  0  0
  4  9  1  0  0  0  0
  5  6  2  0  0  0  0
  5 28  1  0  0  0  0
  6  7  1  0  0  0  0
  6 11  1  0  0  0  0
  7  8  2  0  0  0  0
  7 29  1  0  0  0  0
  8  9  1  0  0  0  0
  8 30  1  0  0  0  0
  9 10  2  0  0  0  0
 10 31  1  0  0  0  0
 11 12  2  0  0  0  0
 11 13  2  0  0  0  0
 11 14  1  0  0  0  0
 14 15  1  0  0  0  0
 14 32  1  0  0  0  0
 15 16  1  0  0  0  0
 15 33  1  0  0  0  0
 15 34  1  0  0  0  0
 16 17  1  0  0  0  0
 16 35  1  0  0  0  0
 16 36  1  0  0  0  0
 17 18  2  0  0  0  0
 17 24  1  0  0  0  0
 18 19  1  0  0  0  0
 18 37  1  0  0  0  0
 19 20  1  0  0  0  0
 19 23  1  0  0  0  0
 20 21  2  0  0  0  0
 20 38  1  0  0  0  0
 21 22  1  0  0  0  0
 21 39  1  0  0  0  0
 22 23  1  0  0  0  0
 23 24  2  0  0  0  0
M  END
