
 OpenBabel10072620183D

 53 55  0  0  0  0  0  0  0  0999 V2000
    1.7153   -0.8121    0.1381 C   0  0  0  0  0  0  0  0  0  0  0  0
    3.1051   -0.6641    0.5740 N   0  0  0  0  0  0  0  0  0  0  0  0
    3.9509   -1.6949   -0.0264 C   0  0  0  0  0  0  0  0  0  0  0  0
    3.5852    0.6264    0.2812 N   0  0  0  0  0  0  0  0  0  0  0  0
    3.4114    1.6697    1.1802 C   0  0  0  0  0  0  0  0  0  0  0  0
    2.7172    1.6446    2.1912 O   0  0  0  0  0  0  0  0  0  0  0  0
    4.1763    2.9010    0.8094 C   0  0  0  0  0  0  0  0  0  0  0  0
    4.8989    2.8430   -0.3479 N   0  0  0  0  0  0  0  0  0  0  0  0
    5.6313    3.9366   -0.6542 C   0  0  0  0  0  0  0  0  0  0  0  0
    5.6802    5.0765    0.1307 C   0  0  0  0  0  0  0  0  0  0  0  0
    4.9103    5.1049    1.2899 C   0  0  0  0  0  0  0  0  0  0  0  0
    4.1514    4.0000    1.6512 C   0  0  0  0  0  0  0  0  0  0  0  0
    4.9501    6.1428    2.1866 O   0  0  0  0  0  0  0  0  0  0  0  0
    4.7655    7.4317    1.7426 C   0  0  0  0  0  0  0  0  0  0  0  0
    3.9754    7.7928    0.6529 C   0  0  0  0  0  0  0  0  0  0  0  0
    3.8017    9.1432    0.3511 C   0  0  0  0  0  0  0  0  0  0  0  0
    4.3960   10.1319    1.1437 C   0  0  0  0  0  0  0  0  0  0  0  0
    5.1657    9.7807    2.2522 C   0  0  0  0  0  0  0  0  0  0  0  0
    5.3469    8.4227    2.5411 C   0  0  0  0  0  0  0  0  0  0  0  0
    5.7568   10.7068    3.1377 N   0  0  0  0  0  0  0  0  0  0  0  0
    5.7231   12.0931    3.0719 C   0  0  0  0  0  0  0  0  0  0  0  0
    5.2407   12.7422    2.1548 O   0  0  0  0  0  0  0  0  0  0  0  0
    6.3079   12.6387    4.2082 N   0  0  0  0  0  0  0  0  0  0  0  0
    6.4710   14.0009    4.5327 C   0  0  0  0  0  0  0  0  0  0  0  0
    6.1388   15.0613    3.6848 C   0  0  0  0  0  0  0  0  0  0  0  0
    6.3135   16.4042    4.0866 C   0  0  0  0  0  0  0  0  0  0  0  0
    6.8334   16.6633    5.3593 C   0  0  0  0  0  0  0  0  0  0  0  0
    7.1739   15.6096    6.2091 C   0  0  0  0  0  0  0  0  0  0  0  0
    6.9958   14.2882    5.7970 C   0  0  0  0  0  0  0  0  0  0  0  0
    7.0799   18.2672    5.9462 Cl  0  0  0  0  0  0  0  0  0  0  0  0
    5.9500   17.5260    3.1508 C   0  0  0  0  0  0  0  0  0  0  0  0
    5.4372   17.0996    1.9611 F   0  0  0  0  0  0  0  0  0  0  0  0
    5.0098   18.3659    3.6662 F   0  0  0  0  0  0  0  0  0  0  0  0
    7.0181   18.3051    2.8221 F   0  0  0  0  0  0  0  0  0  0  0  0
    1.3253   -1.7949    0.4252 H   0  0  0  0  0  0  0  0  0  0  0  0
    1.6117   -0.6997   -0.9474 H   0  0  0  0  0  0  0  0  0  0  0  0
    1.0745   -0.0657    0.6209 H   0  0  0  0  0  0  0  0  0  0  0  0
    3.6166   -2.6927    0.2780 H   0  0  0  0  0  0  0  0  0  0  0  0
    4.9868   -1.5885    0.3160 H   0  0  0  0  0  0  0  0  0  0  0  0
    3.9473   -1.6450   -1.1217 H   0  0  0  0  0  0  0  0  0  0  0  0
    4.2462    0.7844   -0.4792 H   0  0  0  0  0  0  0  0  0  0  0  0
    6.2102    3.8678   -1.5719 H   0  0  0  0  0  0  0  0  0  0  0  0
    6.3127    5.9119   -0.1488 H   0  0  0  0  0  0  0  0  0  0  0  0
    3.5731    3.9894    2.5691 H   0  0  0  0  0  0  0  0  0  0  0  0
    3.4687    7.0473    0.0474 H   0  0  0  0  0  0  0  0  0  0  0  0
    3.1784    9.4364   -0.4908 H   0  0  0  0  0  0  0  0  0  0  0  0
    4.2167   11.1693    0.8777 H   0  0  0  0  0  0  0  0  0  0  0  0
    5.9312    8.1112    3.4032 H   0  0  0  0  0  0  0  0  0  0  0  0
    6.2796   10.3055    3.8990 H   0  0  0  0  0  0  0  0  0  0  0  0
    6.5674   11.9855    4.9306 H   0  0  0  0  0  0  0  0  0  0  0  0
    5.7328   14.8729    2.6929 H   0  0  0  0  0  0  0  0  0  0  0  0
    7.5781   15.8100    7.1990 H   0  0  0  0  0  0  0  0  0  0  0  0
    7.2648   13.4906    6.4856 H   0  0  0  0  0  0  0  0  0  0  0  0
  1  2  1  0  0  0  0
  1 35  1  0  0  0  0
  1 36  1  0  0  0  0
  1 37  1  0  0  0  0
  2  3  1  0  0  0  0
  2  4  1  0  0  0  0
  3 38  1  0  0  0  0
  3 39  1  0  0  0  0
  3 40  1  0  0  0  0
  4  5  1  0  0  0  0
  4 41  1  0  0  0  0
  5  6  2  0  0  0  0
  5  7  1  0  0  0  0
  7  8  2  0  0  0  0
  7 12  1  0  0  0  0
  8  9  1  0  0  0  0
  9 10  2  0  0  0  0
  9 42  1  0  0  0  0
 10 11  1  0  0  0  0
 10 43  1  0  0  0  0
 11 12  2  0  0  0  0
 11 13  1  0  0  0  0
 12 44  1  0  0  0  0
 13 14  1  0  0  0  0
 14 15  2  0  0  0  0
 14 19  1  0  0  0  0
 15 16  1  0  0  0  0
 15 45  1  0  0  0  0
 16 17  2  0  0  0  0
 16 46  1  0  0  0  0
 17 18  1  0  0  0  0
 17 47  1  0  0  0  0
 18 19  2  0  0  0  0
 18 20  1  0  0  0  0
 19 48  1  0  0  0  0
 20 21  1  0  0  0  0
 20 49  1  0  0  0  0
 21 22  2  0  0  0  0
 21 23  1  0  0  0  0
 23 24  1  0  0  0  0
 23 50  1  0  0  0  0
 24 25  2  0  0  0  0
 24 29  1  0  0  0  0
 25 26  1  0  0  0  0
 25 51  1  0  0  0  0
 26 27  2  0  0  0  0
 26 31  1  0  0  0  0
 27 28  1  0  0  0  0
 27 30  1  0  0  0  0
 28 29  2  0  0  0  0
 28 52  1  0  0  0  0
 29 53  1  0  0  0  0
 31 32  1  0  0  0  0
 31 33  1  0  0  0  0
 31 34  1  0  0  0  0
M  END
