
 OpenBabel10072619553D

 50 53  0  0  0  0  0  0  0  0999 V2000
    1.2284    0.5209   -1.3086 C   0  0  0  0  0  0  0  0  0  0  0  0
    2.4645    0.0883   -0.6059 C   0  0  0  0  0  0  0  0  0  0  0  0
    2.8437   -1.1170   -0.0413 C   0  0  0  0  0  0  0  0  0  0  0  0
    4.2115   -0.9290    0.3177 C   0  0  0  0  0  0  0  0  0  0  0  0
    4.6223    0.3194    0.0816 N   0  0  0  0  0  0  0  0  0  0  0  0
    3.5196    0.9434   -0.3791 N   0  0  0  0  0  0  0  0  0  0  0  0
    3.5540    2.3950   -0.5160 C   0  0  0  0  0  0  0  0  0  0  0  0
    3.1284    3.0567    0.7757 C   0  0  0  0  0  0  0  0  0  0  0  0
    4.0711    3.2726    1.7944 C   0  0  0  0  0  0  0  0  0  0  0  0
    3.6896    3.8320    3.0182 C   0  0  0  0  0  0  0  0  0  0  0  0
    2.3505    4.1661    3.2412 C   0  0  0  0  0  0  0  0  0  0  0  0
    1.4025    3.9418    2.2387 C   0  0  0  0  0  0  0  0  0  0  0  0
    1.7888    3.3942    1.0119 C   0  0  0  0  0  0  0  0  0  0  0  0
    1.8002    4.8466    4.7309 Cl  0  0  0  0  0  0  0  0  0  0  0  0
    4.9173    4.0686    4.2114 Cl  0  0  0  0  0  0  0  0  0  0  0  0
    5.1692   -1.8912    0.9166 C   0  0  0  0  0  0  0  0  0  0  0  0
    2.1301   -2.2959    0.1343 N   0  0  0  0  0  0  0  0  0  0  0  0
    0.7508   -2.4548    0.1217 C   0  0  0  0  0  0  0  0  0  0  0  0
   -0.0616   -1.5485    0.0086 O   0  0  0  0  0  0  0  0  0  0  0  0
    0.4261   -3.7980    0.2925 N   0  0  0  0  0  0  0  0  0  0  0  0
   -0.8611   -4.3992    0.2536 C   0  0  0  0  0  0  0  0  0  0  0  0
   -1.9705   -3.6898   -0.2246 C   0  0  0  0  0  0  0  0  0  0  0  0
   -3.2271   -4.2827   -0.2858 C   0  0  0  0  0  0  0  0  0  0  0  0
   -3.3951   -5.5986    0.1255 C   0  0  0  0  0  0  0  0  0  0  0  0
   -2.3129   -6.3447    0.6081 C   0  0  0  0  0  0  0  0  0  0  0  0
   -2.5237   -7.6698    1.0248 C   0  0  0  0  0  0  0  0  0  0  0  0
   -1.4797   -8.4427    1.5244 C   0  0  0  0  0  0  0  0  0  0  0  0
   -0.2084   -7.8982    1.6131 C   0  0  0  0  0  0  0  0  0  0  0  0
    0.0180   -6.5810    1.1997 C   0  0  0  0  0  0  0  0  0  0  0  0
   -1.0200   -5.7594    0.6813 C   0  0  0  0  0  0  0  0  0  0  0  0
    0.8134   -0.2960   -1.9066 H   0  0  0  0  0  0  0  0  0  0  0  0
    1.4207    1.3328   -2.0153 H   0  0  0  0  0  0  0  0  0  0  0  0
    0.4765    0.8666   -0.5936 H   0  0  0  0  0  0  0  0  0  0  0  0
    2.9179    2.7013   -1.3508 H   0  0  0  0  0  0  0  0  0  0  0  0
    4.5792    2.6820   -0.7812 H   0  0  0  0  0  0  0  0  0  0  0  0
    5.1084    2.9793    1.6358 H   0  0  0  0  0  0  0  0  0  0  0  0
    0.3551    4.1804    2.4112 H   0  0  0  0  0  0  0  0  0  0  0  0
    1.0278    3.2135    0.2550 H   0  0  0  0  0  0  0  0  0  0  0  0
    4.7391   -2.8909    1.0142 H   0  0  0  0  0  0  0  0  0  0  0  0
    5.4709   -1.5587    1.9148 H   0  0  0  0  0  0  0  0  0  0  0  0
    6.0666   -1.9749    0.2954 H   0  0  0  0  0  0  0  0  0  0  0  0
    2.6607   -3.0563    0.5237 H   0  0  0  0  0  0  0  0  0  0  0  0
    1.1904   -4.4041    0.5268 H   0  0  0  0  0  0  0  0  0  0  0  0
   -1.8880   -2.6671   -0.5785 H   0  0  0  0  0  0  0  0  0  0  0  0
   -4.0736   -3.7122   -0.6592 H   0  0  0  0  0  0  0  0  0  0  0  0
   -4.3891   -6.0368    0.0683 H   0  0  0  0  0  0  0  0  0  0  0  0
   -3.5166   -8.1122    0.9668 H   0  0  0  0  0  0  0  0  0  0  0  0
   -1.6645   -9.4637    1.8467 H   0  0  0  0  0  0  0  0  0  0  0  0
    0.6095   -8.4946    2.0097 H   0  0  0  0  0  0  0  0  0  0  0  0
    1.0316   -6.2110    1.3081 H   0  0  0  0  0  0  0  0  0  0  0  0
  1  2  1  0  0  0  0
  1 31  1  0  0  0  0
  1 32  1  0  0  0  0
  1 33  1  0  0  0  0
  2  3  2  0  0  0  0
  2  6  1  0  0  0  0
  3  4  1  0  0  0  0
  3 17  1  0  0  0  0
  4  5  2  0  0  0  0
  4 16  1  0  0  0  0
  5  6  1  0  0  0  0
  6  7  1  0  0  0  0
  7  8  1  0  0  0  0
  7 34  1  0  0  0  0
  7 35  1  0  0  0  0
  8  9  2  0  0  0  0
  8 13  1  0  0  0  0
  9 10  1  0  0  0  0
  9 36  1  0  0  0  0
 10 11  2  0  0  0  0
 10 15  1  0  0  0  0
 11 12  1  0  0  0  0
 11 14  1  0  0  0  0
 12 13  2  0  0  0  0
 12 37  1  0  0  0  0
 13 38  1  0  0  0  0
 16 39  1  0  0  0  0
 16 40  1  0  0  0  0
 16 41  1  0  0  0  0
 17 18  1  0  0  0  0
 17 42  1  0  0  0  0
 18 19  2  0  0  0  0
 18 20  1  0  0  0  0
 20 21  1  0  0  0  0
 20 43  1  0  0  0  0
 21 22  2  0  0  0  0
 21 30  1  0  0  0  0
 22 23  1  0  0  0  0
 22 44  1  0  0  0  0
 23 24  2  0  0  0  0
 23 45  1  0  0  0  0
 24 25  1  0  0  0  0
 24 46  1  0  0  0  0
 25 26  2  0  0  0  0
 25 30  1  0  0  0  0
 26 27  1  0  0  0  0
 26 47  1  0  0  0  0
 27 28  2  0  0  0  0
 27 48  1  0  0  0  0
 28 29  1  0  0  0  0
 28 49  1  0  0  0  0
 29 30  2  0  0  0  0
 29 50  1  0  0  0  0
M  END
