
 OpenBabel10072619513D

 99 99  0  0  0  0  0  0  0  0999 V2000
    0.9016   -0.0937   -0.0380 C   0  0  0  0  0  0  0  0  0  0  0  0
    2.4215   -0.0906   -0.0188 C   0  0  0  0  0  0  0  0  0  0  0  0
    2.9425    0.1685    1.3937 C   0  0  0  0  0  0  0  0  0  0  0  0
    4.4687    0.1771    1.4424 C   0  0  0  0  0  0  0  0  0  0  0  0
    4.9732    0.4369    2.8633 C   0  0  0  0  0  0  0  0  0  0  0  0
    6.4998    0.4442    2.9037 C   0  0  0  0  0  0  0  0  0  0  0  0
    7.0272    0.7013    4.3148 C   0  0  0  0  0  0  0  0  0  0  0  0
    8.5547    0.7008    4.3227 C   0  0  0  0  0  0  0  0  0  0  0  0
    9.1134    0.9554    5.7207 C   0  0  0  0  0  0  0  0  0  0  0  0
   10.6413    0.9508    5.6945 C   0  0  0  0  0  0  0  0  0  0  0  0
   11.2225    1.2110    7.0814 C   0  0  0  0  0  0  0  0  0  0  0  0
   12.7504    1.2216    7.0433 C   0  0  0  0  0  0  0  0  0  0  0  0
   13.3278    1.5017    8.4280 C   0  0  0  0  0  0  0  0  0  0  0  0
   14.8554    1.5338    8.4049 C   0  0  0  0  0  0  0  0  0  0  0  0
   15.4012    1.8249    9.8014 C   0  0  0  0  0  0  0  0  0  0  0  0
   16.9286    1.8168    9.8242 C   0  0  0  0  0  0  0  0  0  0  0  0
   17.4450    2.1029   11.2325 C   0  0  0  0  0  0  0  0  0  0  0  0
   18.9696    2.0590   11.3007 C   0  0  0  0  0  0  0  0  0  0  0  0
   19.4256    2.2834   12.6539 N   0  0  0  0  0  0  0  0  0  0  0  0
   19.4317    1.2971   13.5936 C   0  0  0  0  0  0  0  0  0  0  0  0
   19.2236    0.1130   13.3752 O   0  0  0  0  0  0  0  0  0  0  0  0
   19.6595    1.8495   14.8082 O   0  0  0  0  0  0  0  0  0  0  0  0
   19.5939    0.9439   15.9162 C   0  0  0  0  0  0  0  0  0  0  0  0
   20.9673    0.6067   16.4520 C   0  0  0  0  0  0  0  0  0  0  0  0
   22.0812    1.3029   16.1629 C   0  0  0  0  0  0  0  0  0  0  0  0
   21.0173   -0.6081   17.3397 C   0  0  0  0  0  0  0  0  0  0  0  0
   20.0681   -0.4535   18.4033 O   0  0  0  0  0  0  0  0  0  0  0  0
   20.5704   -0.1152   19.6165 C   0  0  0  0  0  0  0  0  0  0  0  0
   21.7534    0.0248   19.8973 O   0  0  0  0  0  0  0  0  0  0  0  0
   19.4578   -0.0236   20.6323 C   0  0  0  0  0  0  0  0  0  0  0  0
   19.3213   -1.3228   21.4256 C   0  0  0  0  0  0  0  0  0  0  0  0
   20.4832   -1.5276   22.4013 C   0  0  0  0  0  0  0  0  0  0  0  0
   20.3454   -2.8180   23.2064 C   0  0  0  0  0  0  0  0  0  0  0  0
   21.5513   -2.9946   24.1238 C   0  0  0  0  0  0  0  0  0  0  0  0
   21.4169   -4.2565   24.8858 N   0  3  0  0  0  0  0  0  0  0  0  0
   21.8530   -5.4171   24.3419 C   0  0  0  0  0  0  0  0  0  0  0  0
   21.7363   -6.6135   25.0401 C   0  0  0  0  0  0  0  0  0  0  0  0
   21.1737   -6.6091   26.3099 C   0  0  0  0  0  0  0  0  0  0  0  0
   20.7410   -5.4094   26.8594 C   0  0  0  0  0  0  0  0  0  0  0  0
   20.8739   -4.2365   26.1256 C   0  0  0  0  0  0  0  0  0  0  0  0
    0.5308   -0.2794   -1.0500 H   0  0  0  0  0  0  0  0  0  0  0  0
    0.5062    0.8699    0.2990 H   0  0  0  0  0  0  0  0  0  0  0  0
    0.5057   -0.8744    0.6194 H   0  0  0  0  0  0  0  0  0  0  0  0
    2.7921    0.6809   -0.7039 H   0  0  0  0  0  0  0  0  0  0  0  0
    2.7915   -1.0553   -0.3852 H   0  0  0  0  0  0  0  0  0  0  0  0
    2.5602   -0.6043    2.0716 H   0  0  0  0  0  0  0  0  0  0  0  0
    2.5605    1.1317    1.7531 H   0  0  0  0  0  0  0  0  0  0  0  0
    4.8555    0.9511    0.7683 H   0  0  0  0  0  0  0  0  0  0  0  0
    4.8552   -0.7855    1.0859 H   0  0  0  0  0  0  0  0  0  0  0  0
    4.5894   -0.3368    3.5396 H   0  0  0  0  0  0  0  0  0  0  0  0
    4.5895    1.3998    3.2222 H   0  0  0  0  0  0  0  0  0  0  0  0
    6.8796    1.2173    2.2245 H   0  0  0  0  0  0  0  0  0  0  0  0
    6.8795   -0.5188    2.5409 H   0  0  0  0  0  0  0  0  0  0  0  0
    6.6528   -0.0712    4.9973 H   0  0  0  0  0  0  0  0  0  0  0  0
    6.6550    1.6661    4.6798 H   0  0  0  0  0  0  0  0  0  0  0  0
    8.9242    1.4719    3.6355 H   0  0  0  0  0  0  0  0  0  0  0  0
    8.9224   -0.2639    3.9521 H   0  0  0  0  0  0  0  0  0  0  0  0
    8.7516    0.1839    6.4112 H   0  0  0  0  0  0  0  0  0  0  0  0
    8.7514    1.9211    6.0941 H   0  0  0  0  0  0  0  0  0  0  0  0
   10.9977    1.7182    4.9964 H   0  0  0  0  0  0  0  0  0  0  0  0
   10.9996   -0.0164    5.3213 H   0  0  0  0  0  0  0  0  0  0  0  0
   10.8756    0.4380    7.7778 H   0  0  0  0  0  0  0  0  0  0  0  0
   10.8561    2.1735    7.4581 H   0  0  0  0  0  0  0  0  0  0  0  0
   13.0957    1.9869    6.3380 H   0  0  0  0  0  0  0  0  0  0  0  0
   13.1177    0.2550    6.6777 H   0  0  0  0  0  0  0  0  0  0  0  0
   12.9890    0.7288    9.1291 H   0  0  0  0  0  0  0  0  0  0  0  0
   12.9474    2.4622    8.7970 H   0  0  0  0  0  0  0  0  0  0  0  0
   15.2028    2.3036    7.7046 H   0  0  0  0  0  0  0  0  0  0  0  0
   15.2412    0.5707    8.0487 H   0  0  0  0  0  0  0  0  0  0  0  0
   15.0216    1.0738   10.5055 H   0  0  0  0  0  0  0  0  0  0  0  0
   15.0339    2.8004   10.1437 H   0  0  0  0  0  0  0  0  0  0  0  0
   17.3163    2.5687    9.1267 H   0  0  0  0  0  0  0  0  0  0  0  0
   17.2952    0.8399    9.4870 H   0  0  0  0  0  0  0  0  0  0  0  0
   17.0199    1.3740   11.9343 H   0  0  0  0  0  0  0  0  0  0  0  0
   17.0949    3.0893   11.5632 H   0  0  0  0  0  0  0  0  0  0  0  0
   19.4067    2.8433   10.6737 H   0  0  0  0  0  0  0  0  0  0  0  0
   19.3431    1.0890   10.9535 H   0  0  0  0  0  0  0  0  0  0  0  0
   19.5052    3.2263   13.0065 H   0  0  0  0  0  0  0  0  0  0  0  0
   19.0382    0.0317   15.6683 H   0  0  0  0  0  0  0  0  0  0  0  0
   19.0238    1.4503   16.7035 H   0  0  0  0  0  0  0  0  0  0  0  0
   22.0538    2.1758   15.5180 H   0  0  0  0  0  0  0  0  0  0  0  0
   23.0517    1.0267   16.5657 H   0  0  0  0  0  0  0  0  0  0  0  0
   22.0269   -0.8149   17.7142 H   0  0  0  0  0  0  0  0  0  0  0  0
   20.7147   -1.4922   16.7679 H   0  0  0  0  0  0  0  0  0  0  0  0
   18.5192    0.1954   20.1098 H   0  0  0  0  0  0  0  0  0  0  0  0
   19.6519    0.8344   21.2862 H   0  0  0  0  0  0  0  0  0  0  0  0
   19.2588   -2.1747   20.7371 H   0  0  0  0  0  0  0  0  0  0  0  0
   18.3806   -1.2922   21.9883 H   0  0  0  0  0  0  0  0  0  0  0  0
   20.5353   -0.6734   23.0873 H   0  0  0  0  0  0  0  0  0  0  0  0
   21.4298   -1.5608   21.8509 H   0  0  0  0  0  0  0  0  0  0  0  0
   20.2682   -3.6735   22.5250 H   0  0  0  0  0  0  0  0  0  0  0  0
   19.4198   -2.7995   23.7940 H   0  0  0  0  0  0  0  0  0  0  0  0
   21.6404   -2.1724   24.8421 H   0  0  0  0  0  0  0  0  0  0  0  0
   22.4880   -3.0447   23.5581 H   0  0  0  0  0  0  0  0  0  0  0  0
   22.2874   -5.3765   23.3470 H   0  0  0  0  0  0  0  0  0  0  0  0
   22.0825   -7.5454   24.5974 H   0  0  0  0  0  0  0  0  0  0  0  0
   21.0730   -7.5383   26.8699 H   0  0  0  0  0  0  0  0  0  0  0  0
   20.3026   -5.3888   27.8553 H   0  0  0  0  0  0  0  0  0  0  0  0
   20.5473   -3.2786   26.5199 H   0  0  0  0  0  0  0  0  0  0  0  0
  1  2  1  0  0  0  0
  1 41  1  0  0  0  0
  1 42  1  0  0  0  0
  1 43  1  0  0  0  0
  2  3  1  0  0  0  0
  2 44  1  0  0  0  0
  2 45  1  0  0  0  0
  3  4  1  0  0  0  0
  3 46  1  0  0  0  0
  3 47  1  0  0  0  0
  4  5  1  0  0  0  0
  4 48  1  0  0  0  0
  4 49  1  0  0  0  0
  5  6  1  0  0  0  0
  5 50  1  0  0  0  0
  5 51  1  0  0  0  0
  6  7  1  0  0  0  0
  6 52  1  0  0  0  0
  6 53  1  0  0  0  0
  7  8  1  0  0  0  0
  7 54  1  0  0  0  0
  7 55  1  0  0  0  0
  8  9  1  0  0  0  0
  8 56  1  0  0  0  0
  8 57  1  0  0  0  0
  9 10  1  0  0  0  0
  9 58  1  0  0  0  0
  9 59  1  0  0  0  0
 10 11  1  0  0  0  0
 10 60  1  0  0  0  0
 10 61  1  0  0  0  0
 11 12  1  0  0  0  0
 11 62  1  0  0  0  0
 11 63  1  0  0  0  0
 12 13  1  0  0  0  0
 12 64  1  0  0  0  0
 12 65  1  0  0  0  0
 13 14  1  0  0  0  0
 13 66  1  0  0  0  0
 13 67  1  0  0  0  0
 14 15  1  0  0  0  0
 14 68  1  0  0  0  0
 14 69  1  0  0  0  0
 15 16  1  0  0  0  0
 15 70  1  0  0  0  0
 15 71  1  0  0  0  0
 16 17  1  0  0  0  0
 16 72  1  0  0  0  0
 16 73  1  0  0  0  0
 17 18  1  0  0  0  0
 17 74  1  0  0  0  0
 17 75  1  0  0  0  0
 18 19  1  0  0  0  0
 18 76  1  0  0  0  0
 18 77  1  0  0  0  0
 19 20  1  0  0  0  0
 19 78  1  0  0  0  0
 20 21  2  0  0  0  0
 20 22  1  0  0  0  0
 22 23  1  0  0  0  0
 23 24  1  0  0  0  0
 23 79  1  0  0  0  0
 23 80  1  0  0  0  0
 24 25  2  0  0  0  0
 24 26  1  0  0  0  0
 25 81  1  0  0  0  0
 25 82  1  0  0  0  0
 26 27  1  0  0  0  0
 26 83  1  0  0  0  0
 26 84  1  0  0  0  0
 27 28  1  0  0  0  0
 28 29  2  0  0  0  0
 28 30  1  0  0  0  0
 30 31  1  0  0  0  0
 30 85  1  0  0  0  0
 30 86  1  0  0  0  0
 31 32  1  0  0  0  0
 31 87  1  0  0  0  0
 31 88  1  0  0  0  0
 32 33  1  0  0  0  0
 32 89  1  0  0  0  0
 32 90  1  0  0  0  0
 33 34  1  0  0  0  0
 33 91  1  0  0  0  0
 33 92  1  0  0  0  0
 34 35  1  0  0  0  0
 34 93  1  0  0  0  0
 34 94  1  0  0  0  0
 35 36  2  0  0  0  0
 35 40  1  0  0  0  0
 36 37  1  0  0  0  0
 36 95  1  0  0  0  0
 37 38  2  0  0  0  0
 37 96  1  0  0  0  0
 38 39  1  0  0  0  0
 38 97  1  0  0  0  0
 39 40  2  0  0  0  0
 39 98  1  0  0  0  0
 40 99  1  0  0  0  0
M  CHG  1  35   1
M  END
