
 OpenBabel10072620183D

 24 24  0  0  0  0  0  0  0  0999 V2000
    1.6708   -1.0475    0.0605 C   0  0  0  0  0  0  0  0  0  0  0  0
    2.2427    0.2213   -0.0377 C   0  0  0  0  0  0  0  0  0  0  0  0
    1.4599    1.3313   -0.3685 C   0  0  0  0  0  0  0  0  0  0  0  0
    0.0979    1.1581   -0.6290 C   0  0  0  0  0  0  0  0  0  0  0  0
   -0.4718   -0.1099   -0.5269 C   0  0  0  0  0  0  0  0  0  0  0  0
    0.3080   -1.2133   -0.1807 C   0  0  0  0  0  0  0  0  0  0  0  0
   -2.1512   -0.3213   -0.8346 Cl  0  0  0  0  0  0  0  0  0  0  0  0
    2.0768    2.5834   -0.4838 N   0  0  0  0  0  0  0  0  0  0  0  0
    1.8376    3.5101    0.3923 C   0  0  0  0  0  0  0  0  0  0  0  0
    1.0431    3.3900    1.4917 N   0  0  0  0  0  0  0  0  0  0  0  0
    2.4694    4.7147    0.2904 N   0  0  0  0  0  0  0  0  0  0  0  0
    2.9172    5.1501   -0.8355 C   0  0  0  0  0  0  0  0  0  0  0  0
    2.8557    4.5994   -2.0694 N   0  0  0  0  0  0  0  0  0  0  0  0
    3.5473    6.3454   -0.9001 N   0  0  0  0  0  0  0  0  0  0  0  0
    2.2911   -1.9023    0.3163 H   0  0  0  0  0  0  0  0  0  0  0  0
    3.3071    0.3551    0.1423 H   0  0  0  0  0  0  0  0  0  0  0  0
   -0.5111    2.0153   -0.9030 H   0  0  0  0  0  0  0  0  0  0  0  0
   -0.1364   -2.2022   -0.1028 H   0  0  0  0  0  0  0  0  0  0  0  0
    1.0516    2.4632    1.8931 H   0  0  0  0  0  0  0  0  0  0  0  0
    1.2579    4.1146    2.1646 H   0  0  0  0  0  0  0  0  0  0  0  0
    2.5449    3.6259   -1.9955 H   0  0  0  0  0  0  0  0  0  0  0  0
    3.7531    4.6304   -2.5371 H   0  0  0  0  0  0  0  0  0  0  0  0
    3.4095    6.8728   -0.0443 H   0  0  0  0  0  0  0  0  0  0  0  0
    3.2706    6.8776   -1.7149 H   0  0  0  0  0  0  0  0  0  0  0  0
  1  2  2  0  0  0  0
  1  6  1  0  0  0  0
  1 15  1  0  0  0  0
  2  3  1  0  0  0  0
  2 16  1  0  0  0  0
  3  4  2  0  0  0  0
  3  8  1  0  0  0  0
  4  5  1  0  0  0  0
  4 17  1  0  0  0  0
  5  6  2  0  0  0  0
  5  7  1  0  0  0  0
  6 18  1  0  0  0  0
  8  9  2  3  0  0  0
  9 10  1  0  0  0  0
  9 11  1  0  0  0  0
 10 19  1  0  0  0  0
 10 20  1  0  0  0  0
 11 12  2  0  0  0  0
 12 13  1  0  0  0  0
 12 14  1  0  0  0  0
 13 21  1  0  0  0  0
 13 22  1  0  0  0  0
 14 23  1  0  0  0  0
 14 24  1  0  0  0  0
M  END
