
 OpenBabel10072620103D

 21 20  0  0  0  0  0  0  0  0999 V2000
    1.2741   -0.6800    0.2614 C   0  0  0  0  0  0  0  0  0  0  0  0
    2.5534   -0.4593   -0.0671 C   0  0  0  0  0  0  0  0  0  0  0  0
    2.9609    0.8212   -0.6835 C   0  0  0  0  0  0  0  0  0  0  0  0
    2.2045    1.7263   -0.9812 O   0  0  0  0  0  0  0  0  0  0  0  0
    4.2962    0.7978   -0.8481 O   0  0  0  0  0  0  0  0  0  0  0  0
    4.8461    1.9761   -1.4357 C   0  0  0  0  0  0  0  0  0  0  0  0
    4.6071    2.1198   -2.9406 C   0  0  0  0  0  0  0  0  0  0  0  0
    5.4846    3.1650   -3.5895 C   0  0  0  0  0  0  0  0  0  0  0  0
    5.2863    4.5534   -3.0178 C   0  0  0  0  0  0  0  0  0  0  0  0
    3.9903    4.9315   -3.0175 F   0  0  0  0  0  0  0  0  0  0  0  0
    5.7407    4.6500   -1.7488 F   0  0  0  0  0  0  0  0  0  0  0  0
    5.9715    5.4792   -3.7350 F   0  0  0  0  0  0  0  0  0  0  0  0
    6.7996    2.8055   -3.5032 F   0  0  0  0  0  0  0  0  0  0  0  0
    5.2115    3.1853   -4.9344 F   0  0  0  0  0  0  0  0  0  0  0  0
    4.8606    0.9094   -3.5406 F   0  0  0  0  0  0  0  0  0  0  0  0
    3.3021    2.3801   -3.2227 F   0  0  0  0  0  0  0  0  0  0  0  0
    4.4296    3.0536   -0.7323 F   0  0  0  0  0  0  0  0  0  0  0  0
    6.1864    1.8882   -1.2036 F   0  0  0  0  0  0  0  0  0  0  0  0
    0.9700   -1.6178    0.7146 H   0  0  0  0  0  0  0  0  0  0  0  0
    0.5028    0.0668    0.0877 H   0  0  0  0  0  0  0  0  0  0  0  0
    3.3184   -1.2060    0.1093 H   0  0  0  0  0  0  0  0  0  0  0  0
  1  2  2  0  0  0  0
  1 19  1  0  0  0  0
  1 20  1  0  0  0  0
  2  3  1  0  0  0  0
  2 21  1  0  0  0  0
  3  4  2  0  0  0  0
  3  5  1  0  0  0  0
  5  6  1  0  0  0  0
  6  7  1  0  0  0  0
  6 17  1  0  0  0  0
  6 18  1  0  0  0  0
  7  8  1  0  0  0  0
  7 15  1  0  0  0  0
  7 16  1  0  0  0  0
  8  9  1  0  0  0  0
  8 13  1  0  0  0  0
  8 14  1  0  0  0  0
  9 10  1  0  0  0  0
  9 11  1  0  0  0  0
  9 12  1  0  0  0  0
M  END
