
 OpenBabel10072619583D

 35 35  0  0  0  0  0  0  0  0999 V2000
    1.0758   -0.3550   -1.0012 C   0  0  0  0  0  0  0  0  0  0  0  0
    2.4656   -0.0967   -0.3923 C   0  0  0  0  0  0  0  0  0  0  0  0
    3.1838   -1.4503   -0.3641 C   0  0  0  0  0  0  0  0  0  0  0  0
    3.2179    0.9820   -1.1724 N   0  0  0  0  0  0  0  0  0  0  0  0
    2.4542    2.2903   -1.2815 C   0  0  0  0  0  0  0  0  0  0  0  0
    2.6822    3.2308   -0.1014 C   0  0  0  0  0  0  0  0  0  0  0  0
    2.6985    2.9539   -2.6359 C   0  0  0  0  0  0  0  0  0  0  0  0
    4.9087    1.1588   -0.8242 S   0  0  0  0  0  0  0  0  0  0  0  0
    5.4124    2.3748   -1.4232 O   0  0  0  0  0  0  0  0  0  0  0  0
    5.0933    0.8928    0.5882 O   0  0  0  0  0  0  0  0  0  0  0  0
    5.6822   -0.1461   -1.7529 C   0  0  0  0  0  0  0  0  0  0  0  0
    5.3751   -0.2912   -3.1098 C   0  0  0  0  0  0  0  0  0  0  0  0
    6.0046   -1.2926   -3.8511 C   0  0  0  0  0  0  0  0  0  0  0  0
    6.9379   -2.1279   -3.2341 C   0  0  0  0  0  0  0  0  0  0  0  0
    7.2446   -1.9789   -1.8806 C   0  0  0  0  0  0  0  0  0  0  0  0
    6.6174   -0.9809   -1.1325 C   0  0  0  0  0  0  0  0  0  0  0  0
    7.7246   -3.3513   -4.1529 Cl  0  0  0  0  0  0  0  0  0  0  0  0
    0.6254   -1.2685   -0.5962 H   0  0  0  0  0  0  0  0  0  0  0  0
    1.1274   -0.4524   -2.0913 H   0  0  0  0  0  0  0  0  0  0  0  0
    0.3699    0.4449   -0.7594 H   0  0  0  0  0  0  0  0  0  0  0  0
    2.3334    0.2531    0.6396 H   0  0  0  0  0  0  0  0  0  0  0  0
    3.4075   -1.8103   -1.3737 H   0  0  0  0  0  0  0  0  0  0  0  0
    2.5627   -2.2113    0.1231 H   0  0  0  0  0  0  0  0  0  0  0  0
    4.1078   -1.4178    0.2162 H   0  0  0  0  0  0  0  0  0  0  0  0
    1.3847    2.0795   -1.2827 H   0  0  0  0  0  0  0  0  0  0  0  0
    3.6941    3.6415   -0.0747 H   0  0  0  0  0  0  0  0  0  0  0  0
    2.5023    2.7183    0.8490 H   0  0  0  0  0  0  0  0  0  0  0  0
    1.9956    4.0831   -0.1565 H   0  0  0  0  0  0  0  0  0  0  0  0
    3.6954    3.3874   -2.7287 H   0  0  0  0  0  0  0  0  0  0  0  0
    1.9813    3.7675   -2.7928 H   0  0  0  0  0  0  0  0  0  0  0  0
    2.5694    2.2354   -3.4523 H   0  0  0  0  0  0  0  0  0  0  0  0
    4.6586    0.3729   -3.5880 H   0  0  0  0  0  0  0  0  0  0  0  0
    5.7712   -1.4107   -4.9061 H   0  0  0  0  0  0  0  0  0  0  0  0
    7.9718   -2.6311   -1.4046 H   0  0  0  0  0  0  0  0  0  0  0  0
    6.8649   -0.8574   -0.0811 H   0  0  0  0  0  0  0  0  0  0  0  0
  1  2  1  0  0  0  0
  1 18  1  0  0  0  0
  1 19  1  0  0  0  0
  1 20  1  0  0  0  0
  2  3  1  0  0  0  0
  2  4  1  0  0  0  0
  2 21  1  0  0  0  0
  3 22  1  0  0  0  0
  3 23  1  0  0  0  0
  3 24  1  0  0  0  0
  4  5  1  0  0  0  0
  4  8  1  0  0  0  0
  5  6  1  0  0  0  0
  5  7  1  0  0  0  0
  5 25  1  0  0  0  0
  6 26  1  0  0  0  0
  6 27  1  0  0  0  0
  6 28  1  0  0  0  0
  7 29  1  0  0  0  0
  7 30  1  0  0  0  0
  7 31  1  0  0  0  0
  8  9  2  0  0  0  0
  8 10  2  0  0  0  0
  8 11  1  0  0  0  0
 11 12  2  0  0  0  0
 11 16  1  0  0  0  0
 12 13  1  0  0  0  0
 12 32  1  0  0  0  0
 13 14  2  0  0  0  0
 13 33  1  0  0  0  0
 14 15  1  0  0  0  0
 14 17  1  0  0  0  0
 15 16  2  0  0  0  0
 15 34  1  0  0  0  0
 16 35  1  0  0  0  0
M  END
