
 OpenBabel10072619423D

 33 35  0  0  0  0  0  0  0  0999 V2000
    1.3040    0.5563   -0.0452 C   0  0  0  0  0  0  0  0  0  0  0  0
    2.7763    0.4527   -0.0449 C   0  0  0  0  0  0  0  0  0  0  0  0
    3.6757    1.3772   -0.3277 N   0  0  0  0  0  0  0  0  0  0  0  0
    4.8702    0.7119   -0.1999 C   0  0  0  0  0  0  0  0  0  0  0  0
    4.6378   -0.6005    0.1721 C   0  0  0  0  0  0  0  0  0  0  0  0
    3.2904   -0.7754    0.2757 O   0  0  0  0  0  0  0  0  0  0  0  0
    5.6288   -1.5441    0.3887 C   0  0  0  0  0  0  0  0  0  0  0  0
    6.9457   -1.0995    0.1972 C   0  0  0  0  0  0  0  0  0  0  0  0
    7.2363    0.2182   -0.1909 C   0  0  0  0  0  0  0  0  0  0  0  0
    6.1920    1.1420   -0.3834 C   0  0  0  0  0  0  0  0  0  0  0  0
    8.5482    0.6952   -0.3854 N   0  0  0  0  0  0  0  0  0  0  0  0
    9.7154   -0.0351   -0.3870 C   0  0  0  0  0  0  0  0  0  0  0  0
    9.8235   -1.2514   -0.3092 O   0  0  0  0  0  0  0  0  0  0  0  0
   10.8058    0.7920   -0.5259 N   0  0  0  0  0  0  0  0  0  0  0  0
   12.1349    0.2276   -0.4908 C   0  0  0  0  0  0  0  0  0  0  0  0
   13.0836    1.2585   -0.9700 C   0  0  0  0  0  0  0  0  0  0  0  0
   13.9137    1.3458   -2.0680 C   0  0  0  0  0  0  0  0  0  0  0  0
   14.5607    2.6013   -1.9800 C   0  0  0  0  0  0  0  0  0  0  0  0
   14.0815    3.2017   -0.8397 C   0  0  0  0  0  0  0  0  0  0  0  0
   13.1837    2.3950   -0.2182 O   0  0  0  0  0  0  0  0  0  0  0  0
    0.9909    1.6031   -0.0952 H   0  0  0  0  0  0  0  0  0  0  0  0
    0.8858    0.1146    0.8650 H   0  0  0  0  0  0  0  0  0  0  0  0
    0.8903    0.0289   -0.9107 H   0  0  0  0  0  0  0  0  0  0  0  0
    5.4006   -2.5601    0.6839 H   0  0  0  0  0  0  0  0  0  0  0  0
    7.7398   -1.8223    0.3681 H   0  0  0  0  0  0  0  0  0  0  0  0
    6.3772    2.1692   -0.6740 H   0  0  0  0  0  0  0  0  0  0  0  0
    8.6439    1.6584   -0.6756 H   0  0  0  0  0  0  0  0  0  0  0  0
   10.7255    1.7129   -0.1210 H   0  0  0  0  0  0  0  0  0  0  0  0
   12.1727   -0.6699   -1.1167 H   0  0  0  0  0  0  0  0  0  0  0  0
   12.3592   -0.0606    0.5416 H   0  0  0  0  0  0  0  0  0  0  0  0
   14.0306    0.5961   -2.8385 H   0  0  0  0  0  0  0  0  0  0  0  0
   15.2829    3.0193   -2.6667 H   0  0  0  0  0  0  0  0  0  0  0  0
   14.2646    4.1535   -0.3612 H   0  0  0  0  0  0  0  0  0  0  0  0
  1  2  1  0  0  0  0
  1 21  1  0  0  0  0
  1 22  1  0  0  0  0
  1 23  1  0  0  0  0
  2  3  2  0  0  0  0
  2  6  1  0  0  0  0
  3  4  1  0  0  0  0
  4  5  2  0  0  0  0
  4 10  1  0  0  0  0
  5  6  1  0  0  0  0
  5  7  1  0  0  0  0
  7  8  2  0  0  0  0
  7 24  1  0  0  0  0
  8  9  1  0  0  0  0
  8 25  1  0  0  0  0
  9 10  2  0  0  0  0
  9 11  1  0  0  0  0
 10 26  1  0  0  0  0
 11 12  1  0  0  0  0
 11 27  1  0  0  0  0
 12 13  2  0  0  0  0
 12 14  1  0  0  0  0
 14 15  1  0  0  0  0
 14 28  1  0  0  0  0
 15 16  1  0  0  0  0
 15 29  1  0  0  0  0
 15 30  1  0  0  0  0
 16 17  2  0  0  0  0
 16 20  1  0  0  0  0
 17 18  1  0  0  0  0
 17 31  1  0  0  0  0
 18 19  2  0  0  0  0
 18 32  1  0  0  0  0
 19 20  1  0  0  0  0
 19 33  1  0  0  0  0
M  END
