
 OpenBabel10072619593D

 36 38  0  0  0  0  0  0  0  0999 V2000
    3.1473   -0.0058    0.8804 C   0  0  0  0  0  0  0  0  0  0  0  0
    3.5863    0.7270   -0.2617 O   0  0  0  0  0  0  0  0  0  0  0  0
    3.7910   -0.0556   -1.3688 C   0  0  0  0  0  0  0  0  0  0  0  0
    3.2420    0.3534   -2.5940 C   0  0  0  0  0  0  0  0  0  0  0  0
    3.4569   -0.3970   -3.7499 C   0  0  0  0  0  0  0  0  0  0  0  0
    4.2559   -1.5407   -3.6879 C   0  0  0  0  0  0  0  0  0  0  0  0
    4.8259   -1.9466   -2.4747 C   0  0  0  0  0  0  0  0  0  0  0  0
    4.5942   -1.2013   -1.3160 C   0  0  0  0  0  0  0  0  0  0  0  0
    4.4889   -2.3098   -4.9331 C   0  0  0  0  0  0  0  0  0  0  0  0
    3.5430   -2.5338   -5.6724 O   0  0  0  0  0  0  0  0  0  0  0  0
    5.8280   -2.5984   -5.1636 N   0  0  0  0  0  0  0  0  0  0  0  0
    6.4285   -3.4247   -6.0940 C   0  0  0  0  0  0  0  0  0  0  0  0
    5.6625   -4.4533   -7.1653 S   0  0  0  0  0  0  0  0  0  0  0  0
    7.7993   -3.4003   -6.1367 N   0  0  0  0  0  0  0  0  0  0  0  0
    8.6065   -2.5868   -5.3897 C   0  0  0  0  0  0  0  0  0  0  0  0
    8.2372   -1.7477   -4.4556 N   0  0  0  0  0  0  0  0  0  0  0  0
    9.3670   -1.1177   -3.9515 C   0  0  0  0  0  0  0  0  0  0  0  0
    9.3859   -0.1487   -2.9284 C   0  0  0  0  0  0  0  0  0  0  0  0
   10.6042    0.4004   -2.5138 C   0  0  0  0  0  0  0  0  0  0  0  0
   11.7981   -0.0040   -3.1034 C   0  0  0  0  0  0  0  0  0  0  0  0
   11.8071   -0.9642   -4.1199 C   0  0  0  0  0  0  0  0  0  0  0  0
   10.5794   -1.5095   -4.5302 C   0  0  0  0  0  0  0  0  0  0  0  0
   10.2630   -2.6979   -5.7399 S   0  0  0  0  0  0  0  0  0  0  0  0
    2.2761    1.7799   -2.7174 Cl  0  0  0  0  0  0  0  0  0  0  0  0
    3.9919   -0.4880    1.3820 H   0  0  0  0  0  0  0  0  0  0  0  0
    2.3780   -0.7435    0.6243 H   0  0  0  0  0  0  0  0  0  0  0  0
    2.7073    0.7086    1.5823 H   0  0  0  0  0  0  0  0  0  0  0  0
    3.0168   -0.0923   -4.6972 H   0  0  0  0  0  0  0  0  0  0  0  0
    5.4398   -2.8437   -2.4194 H   0  0  0  0  0  0  0  0  0  0  0  0
    5.0603   -1.5143   -0.3857 H   0  0  0  0  0  0  0  0  0  0  0  0
    6.4876   -2.1227   -4.5532 H   0  0  0  0  0  0  0  0  0  0  0  0
    8.2442   -3.9972   -6.8209 H   0  0  0  0  0  0  0  0  0  0  0  0
    8.4555    0.1677   -2.4660 H   0  0  0  0  0  0  0  0  0  0  0  0
   10.6151    1.1515   -1.7271 H   0  0  0  0  0  0  0  0  0  0  0  0
   12.7380    0.4348   -2.7723 H   0  0  0  0  0  0  0  0  0  0  0  0
   12.7399   -1.2765   -4.5797 H   0  0  0  0  0  0  0  0  0  0  0  0
  1  2  1  0  0  0  0
  1 25  1  0  0  0  0
  1 26  1  0  0  0  0
  1 27  1  0  0  0  0
  2  3  1  0  0  0  0
  3  4  2  0  0  0  0
  3  8  1  0  0  0  0
  4  5  1  0  0  0  0
  4 24  1  0  0  0  0
  5  6  2  0  0  0  0
  5 28  1  0  0  0  0
  6  7  1  0  0  0  0
  6  9  1  0  0  0  0
  7  8  2  0  0  0  0
  7 29  1  0  0  0  0
  8 30  1  0  0  0  0
  9 10  2  0  0  0  0
  9 11  1  0  0  0  0
 11 12  1  0  0  0  0
 11 31  1  0  0  0  0
 12 13  2  0  0  0  0
 12 14  1  0  0  0  0
 14 15  1  0  0  0  0
 14 32  1  0  0  0  0
 15 16  2  0  0  0  0
 15 23  1  0  0  0  0
 16 17  1  0  0  0  0
 17 18  2  0  0  0  0
 17 22  1  0  0  0  0
 18 19  1  0  0  0  0
 18 33  1  0  0  0  0
 19 20  2  0  0  0  0
 19 34  1  0  0  0  0
 20 21  1  0  0  0  0
 20 35  1  0  0  0  0
 21 22  2  0  0  0  0
 21 36  1  0  0  0  0
 22 23  1  0  0  0  0
M  END
