
 OpenBabel10072619583D

 27 27  0  0  0  0  0  0  0  0999 V2000
    0.8155    1.9160   -0.4738 C   0  0  0  0  0  0  0  0  0  0  0  0
   -0.2593    0.9086   -0.1681 C   0  0  0  0  0  0  0  0  0  0  0  0
   -1.6100    1.3161   -0.1715 C   0  0  0  0  0  0  0  0  0  0  0  0
   -2.6361    0.4092    0.0993 C   0  0  0  0  0  0  0  0  0  0  0  0
   -2.2954   -0.9221    0.3967 C   0  0  0  0  0  0  0  0  0  0  0  0
   -0.9656   -1.3402    0.4243 C   0  0  0  0  0  0  0  0  0  0  0  0
    0.0475   -0.4278    0.1347 C   0  0  0  0  0  0  0  0  0  0  0  0
    1.6791   -0.9966    0.1685 Cl  0  0  0  0  0  0  0  0  0  0  0  0
   -3.3066   -1.8002    0.7182 O   0  0  0  0  0  0  0  0  0  0  0  0
   -3.4575   -2.7987   -0.2941 C   0  0  0  0  0  0  0  0  0  0  0  0
   -4.0110    0.7337    0.1501 N   0  0  0  0  0  0  0  0  0  0  0  0
   -4.7490    1.7707   -0.4005 C   0  0  0  0  0  0  0  0  0  0  0  0
   -4.2744    2.8428   -1.5970 S   0  0  0  0  0  0  0  0  0  0  0  0
   -6.0451    1.7592    0.1427 N   0  0  0  0  0  0  0  0  0  0  0  0
   -7.0317    2.6971   -0.2262 N   0  0  0  0  0  0  0  0  0  0  0  0
    0.3910    2.8911   -0.7347 H   0  0  0  0  0  0  0  0  0  0  0  0
    1.4150    1.5861   -1.3285 H   0  0  0  0  0  0  0  0  0  0  0  0
    1.4661    2.0600    0.3950 H   0  0  0  0  0  0  0  0  0  0  0  0
   -1.8293    2.3634   -0.3519 H   0  0  0  0  0  0  0  0  0  0  0  0
   -0.7193   -2.3660    0.6818 H   0  0  0  0  0  0  0  0  0  0  0  0
   -2.6208   -3.5045   -0.2899 H   0  0  0  0  0  0  0  0  0  0  0  0
   -3.5750   -2.3467   -1.2856 H   0  0  0  0  0  0  0  0  0  0  0  0
   -4.3682   -3.3617   -0.0695 H   0  0  0  0  0  0  0  0  0  0  0  0
   -4.5711   -0.0283    0.5183 H   0  0  0  0  0  0  0  0  0  0  0  0
   -6.1747    1.2876    1.0358 H   0  0  0  0  0  0  0  0  0  0  0  0
   -7.4244    2.3920   -1.1224 H   0  0  0  0  0  0  0  0  0  0  0  0
   -6.5495    3.5731   -0.4589 H   0  0  0  0  0  0  0  0  0  0  0  0
  1  2  1  0  0  0  0
  1 16  1  0  0  0  0
  1 17  1  0  0  0  0
  1 18  1  0  0  0  0
  2  3  2  0  0  0  0
  2  7  1  0  0  0  0
  3  4  1  0  0  0  0
  3 19  1  0  0  0  0
  4  5  2  0  0  0  0
  4 11  1  0  0  0  0
  5  6  1  0  0  0  0
  5  9  1  0  0  0  0
  6  7  2  0  0  0  0
  6 20  1  0  0  0  0
  7  8  1  0  0  0  0
  9 10  1  0  0  0  0
 10 21  1  0  0  0  0
 10 22  1  0  0  0  0
 10 23  1  0  0  0  0
 11 12  1  0  0  0  0
 11 24  1  0  0  0  0
 12 13  2  0  0  0  0
 12 14  1  0  0  0  0
 14 15  1  0  0  0  0
 14 25  1  0  0  0  0
 15 26  1  0  0  0  0
 15 27  1  0  0  0  0
M  END
