
 OpenBabel10072620033D

 42 43  0  0  0  0  0  0  0  0999 V2000
   -2.3529    1.7053   -0.8390 C   0  0  0  0  0  0  0  0  0  0  0  0
   -0.8804    1.7595   -0.7703 N   0  3  0  0  0  0  0  0  0  0  0  0
   -0.1537    1.8700   -1.9040 C   0  0  0  0  0  0  0  0  0  0  0  0
    1.2322    1.9276   -1.8476 C   0  0  0  0  0  0  0  0  0  0  0  0
    1.8786    1.8611   -0.6118 C   0  0  0  0  0  0  0  0  0  0  0  0
    1.1109    1.7550    0.5462 C   0  0  0  0  0  0  0  0  0  0  0  0
   -0.2762    1.7019    0.4383 C   0  0  0  0  0  0  0  0  0  0  0  0
    3.3653    1.9534   -0.6002 C   0  0  0  0  0  0  0  0  0  0  0  0
    3.9408    2.4183   -1.5764 O   0  0  0  0  0  0  0  0  0  0  0  0
    4.0265    1.4894    0.5144 N   0  0  0  0  0  0  0  0  0  0  0  0
    5.4808    1.4600    0.5610 C   0  0  0  0  0  0  0  0  0  0  0  0
    6.1141    2.8519    0.6954 C   0  0  0  0  0  0  0  0  0  0  0  0
    7.5646    2.8015    0.8126 N   0  0  0  0  0  0  0  0  0  0  0  0
    8.1602    2.4225    1.9945 C   0  0  0  0  0  0  0  0  0  0  0  0
    7.5222    2.0669    2.9790 O   0  0  0  0  0  0  0  0  0  0  0  0
    9.6481    2.4297    2.0642 C   0  0  0  0  0  0  0  0  0  0  0  0
   10.4523    3.1414    1.1769 C   0  0  0  0  0  0  0  0  0  0  0  0
   11.8347    3.1288    1.3496 C   0  0  0  0  0  0  0  0  0  0  0  0
   12.3990    2.4423    2.3692 N   0  3  0  0  0  0  0  0  0  0  0  0
   11.6356    1.7481    3.2422 C   0  0  0  0  0  0  0  0  0  0  0  0
   10.2540    1.7296    3.1101 C   0  0  0  0  0  0  0  0  0  0  0  0
   13.8638    2.4439    2.5471 C   0  0  0  0  0  0  0  0  0  0  0  0
   -2.6846    1.8448   -1.8704 H   0  0  0  0  0  0  0  0  0  0  0  0
   -2.7467    2.5073   -0.2090 H   0  0  0  0  0  0  0  0  0  0  0  0
   -2.6644    0.7240   -0.4718 H   0  0  0  0  0  0  0  0  0  0  0  0
   -0.6877    1.9178   -2.8492 H   0  0  0  0  0  0  0  0  0  0  0  0
    1.8043    2.0289   -2.7693 H   0  0  0  0  0  0  0  0  0  0  0  0
    1.5618    1.7430    1.5342 H   0  0  0  0  0  0  0  0  0  0  0  0
   -0.9174    1.6243    1.3131 H   0  0  0  0  0  0  0  0  0  0  0  0
    3.5457    0.9770    1.2398 H   0  0  0  0  0  0  0  0  0  0  0  0
    5.8470    0.9699   -0.3490 H   0  0  0  0  0  0  0  0  0  0  0  0
    5.7567    0.8236    1.4084 H   0  0  0  0  0  0  0  0  0  0  0  0
    5.7125    3.3635    1.5785 H   0  0  0  0  0  0  0  0  0  0  0  0
    5.8866    3.4740   -0.1759 H   0  0  0  0  0  0  0  0  0  0  0  0
    8.0921    2.9371   -0.0378 H   0  0  0  0  0  0  0  0  0  0  0  0
   10.0302    3.7344    0.3708 H   0  0  0  0  0  0  0  0  0  0  0  0
   12.4954    3.6758    0.6817 H   0  0  0  0  0  0  0  0  0  0  0  0
   12.1424    1.2183    4.0449 H   0  0  0  0  0  0  0  0  0  0  0  0
    9.6521    1.1766    3.8308 H   0  0  0  0  0  0  0  0  0  0  0  0
   14.3213    3.1630    1.8638 H   0  0  0  0  0  0  0  0  0  0  0  0
   14.2228    1.4340    2.3332 H   0  0  0  0  0  0  0  0  0  0  0  0
   14.0793    2.7275    3.5807 H   0  0  0  0  0  0  0  0  0  0  0  0
  1  2  1  0  0  0  0
  1 23  1  0  0  0  0
  1 24  1  0  0  0  0
  1 25  1  0  0  0  0
  2  3  2  0  0  0  0
  2  7  1  0  0  0  0
  3  4  1  0  0  0  0
  3 26  1  0  0  0  0
  4  5  2  0  0  0  0
  4 27  1  0  0  0  0
  5  6  1  0  0  0  0
  5  8  1  0  0  0  0
  6  7  2  0  0  0  0
  6 28  1  0  0  0  0
  7 29  1  0  0  0  0
  8  9  2  0  0  0  0
  8 10  1  0  0  0  0
 10 11  1  0  0  0  0
 10 30  1  0  0  0  0
 11 12  1  0  0  0  0
 11 31  1  0  0  0  0
 11 32  1  0  0  0  0
 12 13  1  0  0  0  0
 12 33  1  0  0  0  0
 12 34  1  0  0  0  0
 13 14  1  0  0  0  0
 13 35  1  0  0  0  0
 14 15  2  0  0  0  0
 14 16  1  0  0  0  0
 16 17  2  0  0  0  0
 16 21  1  0  0  0  0
 17 18  1  0  0  0  0
 17 36  1  0  0  0  0
 18 19  2  0  0  0  0
 18 37  1  0  0  0  0
 19 20  1  0  0  0  0
 19 22  1  0  0  0  0
 20 21  2  0  0  0  0
 20 38  1  0  0  0  0
 21 39  1  0  0  0  0
 22 40  1  0  0  0  0
 22 41  1  0  0  0  0
 22 42  1  0  0  0  0
M  CHG  2   2   1  19   1
M  END
