
 OpenBabel10072619443D

 35 36  0  0  0  0  0  0  0  0999 V2000
   -1.4948    0.2656   -0.4342 C   0  0  0  0  0  0  0  0  0  0  0  0
   -1.0994   -1.1732   -0.1178 C   0  0  0  0  0  0  0  0  0  0  0  0
    0.3964   -1.3981   -0.3184 C   0  0  0  0  0  0  0  0  0  0  0  0
    1.2556   -0.3998    0.4743 C   0  0  0  0  0  0  0  0  0  0  0  0
    0.8425    1.0324    0.1076 C   0  0  0  0  0  0  0  0  0  0  0  0
   -0.6485    1.2631    0.3512 C   0  0  0  0  0  0  0  0  0  0  0  0
    2.6601   -0.5832    0.0975 N   0  0  0  0  0  0  0  0  0  0  0  0
    3.3709   -1.5293    0.5878 C   0  0  0  0  0  0  0  0  0  0  0  0
    2.9646   -2.4420    1.5200 N   0  0  0  0  0  0  0  0  0  0  0  0
    4.6682   -1.8196    0.2502 N   0  0  0  0  0  0  0  0  0  0  0  0
    5.5914   -1.0670   -0.4988 C   0  0  0  0  0  0  0  0  0  0  0  0
    6.7742   -1.6998   -0.9208 C   0  0  0  0  0  0  0  0  0  0  0  0
    7.7191   -1.0320   -1.7105 C   0  0  0  0  0  0  0  0  0  0  0  0
    7.4908    0.2940   -2.0906 C   0  0  0  0  0  0  0  0  0  0  0  0
    6.3119    0.9298   -1.7005 C   0  0  0  0  0  0  0  0  0  0  0  0
    5.3655    0.2453   -0.9293 C   0  0  0  0  0  0  0  0  0  0  0  0
    8.6128    1.1916   -3.0468 Cl  0  0  0  0  0  0  0  0  0  0  0  0
    9.1358   -1.9105   -2.1801 Cl  0  0  0  0  0  0  0  0  0  0  0  0
   -2.5564    0.4143   -0.2090 H   0  0  0  0  0  0  0  0  0  0  0  0
   -1.3672    0.4513   -1.5077 H   0  0  0  0  0  0  0  0  0  0  0  0
   -1.6603   -1.8609   -0.7617 H   0  0  0  0  0  0  0  0  0  0  0  0
   -1.3760   -1.4141    0.9162 H   0  0  0  0  0  0  0  0  0  0  0  0
    0.6293   -1.3152   -1.3889 H   0  0  0  0  0  0  0  0  0  0  0  0
    0.6449   -2.4261   -0.0382 H   0  0  0  0  0  0  0  0  0  0  0  0
    1.1053   -0.5215    1.5574 H   0  0  0  0  0  0  0  0  0  0  0  0
    1.0687    1.2330   -0.9477 H   0  0  0  0  0  0  0  0  0  0  0  0
    1.4285    1.7545    0.6853 H   0  0  0  0  0  0  0  0  0  0  0  0
   -0.9201    2.2861    0.0676 H   0  0  0  0  0  0  0  0  0  0  0  0
   -0.8698    1.1657    1.4202 H   0  0  0  0  0  0  0  0  0  0  0  0
    1.9881   -2.3623    1.7787 H   0  0  0  0  0  0  0  0  0  0  0  0
    3.1658   -3.3997    1.2663 H   0  0  0  0  0  0  0  0  0  0  0  0
    5.1018   -2.5234    0.8297 H   0  0  0  0  0  0  0  0  0  0  0  0
    6.9541   -2.7385   -0.6500 H   0  0  0  0  0  0  0  0  0  0  0  0
    6.1127    1.9603   -1.9915 H   0  0  0  0  0  0  0  0  0  0  0  0
    4.4605    0.7777   -0.6480 H   0  0  0  0  0  0  0  0  0  0  0  0
  1  2  1  0  0  0  0
  1  6  1  0  0  0  0
  1 19  1  0  0  0  0
  1 20  1  0  0  0  0
  2  3  1  0  0  0  0
  2 21  1  0  0  0  0
  2 22  1  0  0  0  0
  3  4  1  0  0  0  0
  3 23  1  0  0  0  0
  3 24  1  0  0  0  0
  4  5  1  0  0  0  0
  4  7  1  0  0  0  0
  4 25  1  0  0  0  0
  5  6  1  0  0  0  0
  5 26  1  0  0  0  0
  5 27  1  0  0  0  0
  6 28  1  0  0  0  0
  6 29  1  0  0  0  0
  7  8  2  3  0  0  0
  8  9  1  0  0  0  0
  8 10  1  0  0  0  0
  9 30  1  0  0  0  0
  9 31  1  0  0  0  0
 10 11  1  0  0  0  0
 10 32  1  0  0  0  0
 11 12  2  0  0  0  0
 11 16  1  0  0  0  0
 12 13  1  0  0  0  0
 12 33  1  0  0  0  0
 13 14  2  0  0  0  0
 13 18  1  0  0  0  0
 14 15  1  0  0  0  0
 14 17  1  0  0  0  0
 15 16  2  0  0  0  0
 15 34  1  0  0  0  0
 16 35  1  0  0  0  0
M  END
