
 OpenBabel10072620013D

186192  0  0  1  0  0  0  0  0999 V2000
    3.7074    1.2554   -7.3882 C   0  0  0  0  0  0  0  0  0  0  0  0
    2.3999    1.2717   -6.6025 C   0  0  3  0  0  0  0  0  0  0  0  0
    1.9293   -0.1410   -6.1828 C   0  0  0  0  0  0  0  0  0  0  0  0
    3.0691   -0.9333   -5.8074 O   0  0  0  0  0  0  0  0  0  0  0  0
    2.7662   -2.2404   -5.2981 C   0  0  0  0  0  0  0  0  0  0  0  0
    4.1017   -3.0664   -5.0793 C   0  0  3  0  0  0  0  0  0  0  0  0
    3.7146   -4.6311   -4.6422 C   0  0  3  0  0  0  0  0  0  0  0  0
    4.4204   -4.7271   -3.3404 C   0  0  3  0  0  0  0  0  0  0  0  0
    5.8983   -4.4280   -3.7225 C   0  0  3  0  0  0  0  0  0  0  0  0
    5.9919   -3.0269   -3.1995 C   0  0  3  0  0  0  0  0  0  0  0  0
    5.0627   -2.2600   -4.1226 O   0  0  0  0  0  0  0  0  0  0  0  0
    7.3573   -2.5736   -2.9253 O   0  0  0  0  0  0  0  0  0  0  0  0
    8.2147   -3.3295   -1.9360 C   0  0  3  0  0  0  0  0  0  0  0  0
    7.7384   -4.7028   -1.4101 C   0  0  3  0  0  0  0  0  0  0  0  0
    6.4192   -4.5733   -0.8547 O   0  0  0  0  0  0  0  0  0  0  0  0
    6.2178   -3.6052    0.1868 C   0  0  3  0  0  0  0  0  0  0  0  0
    7.3072   -2.4584    0.3159 C   0  0  3  0  0  0  0  0  0  0  0  0
    8.5052   -2.5258   -0.6592 C   0  0  3  0  0  0  0  0  0  0  0  0
    9.0133   -1.2070   -0.9175 O   0  0  0  0  0  0  0  0  0  0  0  0
    7.8196   -2.3471    1.6664 O   0  0  0  0  0  0  0  0  0  0  0  0
    5.9896   -4.2941    1.4127 O   0  0  0  0  0  0  0  0  0  0  0  0
    4.6535   -4.5081    1.9219 C   0  0  3  0  0  0  0  0  0  0  0  0
    4.0031   -5.8716    1.5489 C   0  0  3  0  0  0  0  0  0  0  0  0
    3.0690   -5.8548    0.4614 O   0  0  0  0  0  0  0  0  0  0  0  0
    2.1052   -4.8296    0.2975 C   0  0  3  0  0  0  0  0  0  0  0  0
    2.2936   -3.5613    1.2157 C   0  0  3  0  0  0  0  0  0  0  0  0
    3.6230   -3.3661    1.9905 C   0  0  3  0  0  0  0  0  0  0  0  0
    4.1968   -2.0642    1.8180 O   0  0  0  0  0  0  0  0  0  0  0  0
    1.2525   -3.5871    2.2480 O   0  0  0  0  0  0  0  0  0  0  0  0
    0.7491   -5.2712    0.5439 O   0  0  0  0  0  0  0  0  0  0  0  0
   -0.0103   -6.2586   -0.1859 C   0  0  3  0  0  0  0  0  0  0  0  0
    0.6492   -7.4066   -0.9640 C   0  0  3  0  0  0  0  0  0  0  0  0
    0.9317   -7.0837   -2.3488 O   0  0  0  0  0  0  0  0  0  0  0  0
   -0.1405   -6.6293   -3.1965 C   0  0  3  0  0  0  0  0  0  0  0  0
   -0.8365   -5.4146   -2.5187 C   0  0  3  0  0  0  0  0  0  0  0  0
   -1.1576   -5.6462   -1.0270 C   0  0  3  0  0  0  0  0  0  0  0  0
   -1.6370   -4.4321   -0.4282 O   0  0  0  0  0  0  0  0  0  0  0  0
   -2.0269   -5.0794   -3.2648 O   0  0  0  0  0  0  0  0  0  0  0  0
   -1.1466   -7.5982   -3.5774 O   0  0  0  0  0  0  0  0  0  0  0  0
   -1.0416   -8.4675   -4.7578 C   0  0  3  0  0  0  0  0  0  0  0  0
   -0.0017   -9.5679   -4.5753 C   0  0  3  0  0  0  0  0  0  0  0  0
    1.2148   -8.8346   -4.5561 O   0  0  0  0  0  0  0  0  0  0  0  0
    1.6998   -8.3217   -5.7829 C   0  0  3  0  0  0  0  0  0  0  0  0
    0.5961   -7.7484   -6.7346 C   0  0  3  0  0  0  0  0  0  0  0  0
   -0.8557   -7.8159   -6.1603 C   0  0  3  0  0  0  0  0  0  0  0  0
   -1.5070   -6.5437   -6.2849 O   0  0  0  0  0  0  0  0  0  0  0  0
    0.6238   -8.3537   -8.0423 O   0  0  0  0  0  0  0  0  0  0  0  0
    2.6814   -9.2058   -6.3522 O   0  0  0  0  0  0  0  0  0  0  0  0
    3.7663   -9.7148   -5.4877 C   0  0  3  0  0  0  0  0  0  0  0  0
    3.7964   -9.2198   -4.0103 C   0  0  3  0  0  0  0  0  0  0  0  0
    3.7499   -7.7609   -4.0845 O   0  0  0  0  0  0  0  0  0  0  0  0
    4.6663   -7.0392   -4.9305 C   0  0  3  0  0  0  0  0  0  0  0  0
    4.1624   -5.7376   -5.5178 O   0  0  0  0  0  0  0  0  0  0  0  0
    5.3650   -7.8179   -6.0731 C   0  0  3  0  0  0  0  0  0  0  0  0
    5.1290   -9.3231   -6.0938 C   0  0  3  0  0  0  0  0  0  0  0  0
    5.3311   -9.8551   -7.4070 O   0  0  0  0  0  0  0  0  0  0  0  0
    6.8024   -7.6187   -5.9265 O   0  0  0  0  0  0  0  0  0  0  0  0
    4.9230   -9.8148   -3.0588 C   0  0  0  0  0  0  0  0  0  0  0  0
    4.4845  -10.8817   -2.1348 O   0  0  0  0  0  0  0  0  0  0  0  0
    5.4188  -11.9914   -2.0989 C   0  0  0  0  0  0  0  0  0  0  0  0
    5.4522  -12.9784   -0.8836 C   0  0  3  0  0  0  0  0  0  0  0  0
    4.1703  -13.6972   -0.4754 C   0  0  0  0  0  0  0  0  0  0  0  0
    6.4242  -13.9960   -1.2124 O   0  0  0  0  0  0  0  0  0  0  0  0
    0.0732  -10.7202   -5.6070 C   0  0  0  0  0  0  0  0  0  0  0  0
   -0.5528  -11.9558   -5.1885 O   0  0  0  0  0  0  0  0  0  0  0  0
    0.1559  -13.0417   -5.8353 C   0  0  0  0  0  0  0  0  0  0  0  0
   -0.4750  -14.4332   -5.6819 C   0  0  3  0  0  0  0  0  0  0  0  0
   -0.5826  -14.9214   -4.2473 C   0  0  0  0  0  0  0  0  0  0  0  0
   -1.7590  -14.4827   -6.3019 O   0  0  0  0  0  0  0  0  0  0  0  0
   -0.2034   -8.7008   -0.8893 C   0  0  0  0  0  0  0  0  0  0  0  0
   -0.3930   -9.2188    0.4435 O   0  0  0  0  0  0  0  0  0  0  0  0
   -0.9519  -10.5408    0.3561 C   0  0  0  0  0  0  0  0  0  0  0  0
   -1.1843  -11.2578    1.6971 C   0  0  3  0  0  0  0  0  0  0  0  0
   -2.1291  -10.5542    2.6615 C   0  0  0  0  0  0  0  0  0  0  0  0
   -1.7112  -12.5640    1.4163 O   0  0  0  0  0  0  0  0  0  0  0  0
    3.4189   -6.5435    2.8330 C   0  0  0  0  0  0  0  0  0  0  0  0
    2.7393   -7.7975    2.7202 O   0  0  0  0  0  0  0  0  0  0  0  0
    3.3190   -8.8229    1.9177 C   0  0  0  0  0  0  0  0  0  0  0  0
    4.5515   -9.5569    2.5036 C   0  0  3  0  0  0  0  0  0  0  0  0
    4.2035  -10.8342    3.2750 C   0  0  0  0  0  0  0  0  0  0  0  0
    5.4249   -9.9885    1.4445 O   0  0  0  0  0  0  0  0  0  0  0  0
    8.5831   -5.7450   -0.6264 C   0  0  0  0  0  0  0  0  0  0  0  0
    9.8672   -5.3409   -0.1914 O   0  0  0  0  0  0  0  0  0  0  0  0
   10.1278   -5.6844    1.1829 C   0  0  0  0  0  0  0  0  0  0  0  0
   11.0456   -6.9192    1.3813 C   0  0  3  0  0  0  0  0  0  0  0  0
   10.3575   -8.2812    1.4368 C   0  0  0  0  0  0  0  0  0  0  0  0
   12.0505   -6.9706    0.3674 O   0  0  0  0  0  0  0  0  0  0  0  0
    6.3772   -4.3752   -5.1013 O   0  0  0  0  0  0  0  0  0  0  0  0
    4.2374   -5.9128   -2.5922 O   0  0  0  0  0  0  0  0  0  0  0  0
    2.5878    2.0805   -5.4349 O   0  0  0  0  0  0  0  0  0  0  0  0
    3.6575    0.5626   -8.2329 H   0  0  0  0  0  0  0  0  0  0  0  0
    4.5498    0.9727   -6.7460 H   0  0  0  0  0  0  0  0  0  0  0  0
    3.9401    2.2551   -7.7713 H   0  0  0  0  0  0  0  0  0  0  0  0
    1.6184    1.7619   -7.1947 H   0  0  0  0  0  0  0  0  0  0  0  0
    1.4138   -0.6144   -7.0269 H   0  0  0  0  0  0  0  0  0  0  0  0
    1.2382   -0.0629   -5.3345 H   0  0  0  0  0  0  0  0  0  0  0  0
    2.1232   -2.7655   -6.0212 H   0  0  0  0  0  0  0  0  0  0  0  0
    2.2092   -2.1208   -4.3595 H   0  0  0  0  0  0  0  0  0  0  0  0
    4.6291   -3.0668   -6.0425 H   0  0  0  0  0  0  0  0  0  0  0  0
    2.6344   -4.7453   -4.5533 H   0  0  0  0  0  0  0  0  0  0  0  0
    3.9770   -3.9882   -2.6657 H   0  0  0  0  0  0  0  0  0  0  0  0
    6.4808   -5.2462   -3.3799 H   0  0  0  0  0  0  0  0  0  0  0  0
    5.5099   -2.8667   -2.2353 H   0  0  0  0  0  0  0  0  0  0  0  0
    9.1635   -3.4563   -2.4768 H   0  0  0  0  0  0  0  0  0  0  0  0
    7.6601   -5.2997   -2.2961 H   0  0  0  0  0  0  0  0  0  0  0  0
    5.2911   -3.0924   -0.0873 H   0  0  0  0  0  0  0  0  0  0  0  0
    6.7964   -1.5048    0.1440 H   0  0  0  0  0  0  0  0  0  0  0  0
    9.3337   -3.0111   -0.1311 H   0  0  0  0  0  0  0  0  0  0  0  0
    8.9335   -1.0369   -1.8757 H   0  0  0  0  0  0  0  0  0  0  0  0
    8.3753   -1.5433    1.6860 H   0  0  0  0  0  0  0  0  0  0  0  0
    4.9356   -4.6242    2.9791 H   0  0  0  0  0  0  0  0  0  0  0  0
    4.8125   -6.5237    1.2031 H   0  0  0  0  0  0  0  0  0  0  0  0
    2.1579   -4.5078   -0.7493 H   0  0  0  0  0  0  0  0  0  0  0  0
    2.0544   -2.6644    0.6286 H   0  0  0  0  0  0  0  0  0  0  0  0
    3.3116   -3.3488    3.0474 H   0  0  0  0  0  0  0  0  0  0  0  0
    4.3961   -1.7202    2.7077 H   0  0  0  0  0  0  0  0  0  0  0  0
    0.8133   -4.4545    2.1578 H   0  0  0  0  0  0  0  0  0  0  0  0
   -0.5318   -6.7200    0.6630 H   0  0  0  0  0  0  0  0  0  0  0  0
    1.6108   -7.6288   -0.4949 H   0  0  0  0  0  0  0  0  0  0  0  0
    0.3177   -6.2587   -4.1162 H   0  0  0  0  0  0  0  0  0  0  0  0
   -0.1779   -4.5388   -2.5872 H   0  0  0  0  0  0  0  0  0  0  0  0
   -2.0071   -6.3423   -0.9853 H   0  0  0  0  0  0  0  0  0  0  0  0
   -1.1522   -4.3028    0.4034 H   0  0  0  0  0  0  0  0  0  0  0  0
   -2.7823   -5.4812   -2.7975 H   0  0  0  0  0  0  0  0  0  0  0  0
   -2.0309   -8.9451   -4.7786 H   0  0  0  0  0  0  0  0  0  0  0  0
   -0.1212   -9.9994   -3.5796 H   0  0  0  0  0  0  0  0  0  0  0  0
    2.2272   -7.4067   -5.5385 H   0  0  0  0  0  0  0  0  0  0  0  0
    0.8304   -6.6893   -6.9139 H   0  0  0  0  0  0  0  0  0  0  0  0
   -1.4084   -8.4666   -6.8538 H   0  0  0  0  0  0  0  0  0  0  0  0
   -1.7828   -6.2350   -5.4108 H   0  0  0  0  0  0  0  0  0  0  0  0
    1.1400   -7.7744   -8.6329 H   0  0  0  0  0  0  0  0  0  0  0  0
    3.6815  -10.8081   -5.5176 H   0  0  0  0  0  0  0  0  0  0  0  0
    2.8837   -9.5436   -3.5035 H   0  0  0  0  0  0  0  0  0  0  0  0
    5.4812   -6.7858   -4.2616 H   0  0  0  0  0  0  0  0  0  0  0  0
    5.1311   -7.3656   -7.0493 H   0  0  0  0  0  0  0  0  0  0  0  0
    5.9301   -9.8039   -5.5217 H   0  0  0  0  0  0  0  0  0  0  0  0
    6.2681   -9.6971   -7.6306 H   0  0  0  0  0  0  0  0  0  0  0  0
    7.0313   -7.7233   -4.9843 H   0  0  0  0  0  0  0  0  0  0  0  0
    5.3098   -9.0100   -2.4240 H   0  0  0  0  0  0  0  0  0  0  0  0
    5.7559  -10.2045   -3.6401 H   0  0  0  0  0  0  0  0  0  0  0  0
    6.4362  -11.5805   -2.1401 H   0  0  0  0  0  0  0  0  0  0  0  0
    5.2732  -12.5676   -3.0187 H   0  0  0  0  0  0  0  0  0  0  0  0
    5.8366  -12.4482   -0.0054 H   0  0  0  0  0  0  0  0  0  0  0  0
    3.8840  -14.4712   -1.1971 H   0  0  0  0  0  0  0  0  0  0  0  0
    3.3384  -13.0111   -0.3117 H   0  0  0  0  0  0  0  0  0  0  0  0
    4.3413  -14.2406    0.4680 H   0  0  0  0  0  0  0  0  0  0  0  0
    6.7123  -14.4248   -0.3828 H   0  0  0  0  0  0  0  0  0  0  0  0
    1.1323  -10.9383   -5.7675 H   0  0  0  0  0  0  0  0  0  0  0  0
   -0.3520  -10.4472   -6.5758 H   0  0  0  0  0  0  0  0  0  0  0  0
    1.1698  -13.0719   -5.4193 H   0  0  0  0  0  0  0  0  0  0  0  0
    0.2109  -12.8132   -6.9068 H   0  0  0  0  0  0  0  0  0  0  0  0
    0.1615  -15.1408   -6.2275 H   0  0  0  0  0  0  0  0  0  0  0  0
   -1.1745  -14.2402   -3.6298 H   0  0  0  0  0  0  0  0  0  0  0  0
    0.4096  -15.0365   -3.7988 H   0  0  0  0  0  0  0  0  0  0  0  0
   -1.0830  -15.8970   -4.2174 H   0  0  0  0  0  0  0  0  0  0  0  0
   -2.2262  -13.6669   -6.0572 H   0  0  0  0  0  0  0  0  0  0  0  0
    0.3001   -9.4575   -1.4957 H   0  0  0  0  0  0  0  0  0  0  0  0
   -1.1976   -8.5332   -1.3171 H   0  0  0  0  0  0  0  0  0  0  0  0
   -0.2586  -11.1624   -0.2244 H   0  0  0  0  0  0  0  0  0  0  0  0
   -1.8932  -10.5024   -0.2063 H   0  0  0  0  0  0  0  0  0  0  0  0
   -0.2212  -11.4025    2.1989 H   0  0  0  0  0  0  0  0  0  0  0  0
   -3.1015  -10.3603    2.1951 H   0  0  0  0  0  0  0  0  0  0  0  0
   -1.7145   -9.6135    3.0292 H   0  0  0  0  0  0  0  0  0  0  0  0
   -2.3301  -11.2058    3.5225 H   0  0  0  0  0  0  0  0  0  0  0  0
   -2.6804  -12.5328    1.5089 H   0  0  0  0  0  0  0  0  0  0  0  0
    2.6919   -5.8617    3.2884 H   0  0  0  0  0  0  0  0  0  0  0  0
    4.2211   -6.6701    3.5716 H   0  0  0  0  0  0  0  0  0  0  0  0
    3.5419   -8.4103    0.9298 H   0  0  0  0  0  0  0  0  0  0  0  0
    2.5243   -9.5553    1.7489 H   0  0  0  0  0  0  0  0  0  0  0  0
    5.1300   -8.8984    3.1569 H   0  0  0  0  0  0  0  0  0  0  0  0
    3.6158  -11.5238    2.6579 H   0  0  0  0  0  0  0  0  0  0  0  0
    3.6535  -10.6307    4.1976 H   0  0  0  0  0  0  0  0  0  0  0  0
    5.1200  -11.3824    3.5338 H   0  0  0  0  0  0  0  0  0  0  0  0
    5.2501   -9.4547    0.6519 H   0  0  0  0  0  0  0  0  0  0  0  0
    8.7870   -6.5773   -1.3194 H   0  0  0  0  0  0  0  0  0  0  0  0
    7.9752   -6.1983    0.1659 H   0  0  0  0  0  0  0  0  0  0  0  0
    9.1968   -5.7776    1.7571 H   0  0  0  0  0  0  0  0  0  0  0  0
   10.6542   -4.8155    1.5866 H   0  0  0  0  0  0  0  0  0  0  0  0
   11.5605   -6.7934    2.3421 H   0  0  0  0  0  0  0  0  0  0  0  0
    9.9812   -8.5982    0.4599 H   0  0  0  0  0  0  0  0  0  0  0  0
    9.5418   -8.3008    2.1668 H   0  0  0  0  0  0  0  0  0  0  0  0
   11.0841   -9.0479    1.7440 H   0  0  0  0  0  0  0  0  0  0  0  0
   11.6391   -6.6235   -0.4421 H   0  0  0  0  0  0  0  0  0  0  0  0
    5.9373   -5.0187   -5.6755 H   0  0  0  0  0  0  0  0  0  0  0  0
    3.3563   -6.2956   -2.8126 H   0  0  0  0  0  0  0  0  0  0  0  0
    3.1973    1.5885   -4.8554 H   0  0  0  0  0  0  0  0  0  0  0  0
  1  2  1  0  0  0  0
  1 91  1  0  0  0  0
  1 92  1  0  0  0  0
  1 93  1  0  0  0  0
  2  3  1  0  0  0  0
  2 90  1  0  0  0  0
  2 94  1  0  0  0  0
  3  4  1  0  0  0  0
  3 95  1  0  0  0  0
  3 96  1  0  0  0  0
  4  5  1  0  0  0  0
  5  6  1  0  0  0  0
  5 97  1  0  0  0  0
  5 98  1  0  0  0  0
  6  7  1  0  0  0  0
  6 11  1  0  0  0  0
  6 99  1  0  0  0  0
  7  8  1  0  0  0  0
  7 53  1  0  0  0  0
  7100  1  0  0  0  0
  8  9  1  0  0  0  0
  8 89  1  0  0  0  0
  8101  1  0  0  0  0
  9 10  1  0  0  0  0
  9 88  1  0  0  0  0
  9102  1  0  0  0  0
 10 11  1  0  0  0  0
 10 12  1  0  0  0  0
 10103  1  0  0  0  0
 12 13  1  0  0  0  0
 13 14  1  0  0  0  0
 13 18  1  0  0  0  0
 13104  1  0  0  0  0
 14 15  1  0  0  0  0
 14 82  1  0  0  0  0
 14105  1  0  0  0  0
 15 16  1  0  0  0  0
 16 17  1  0  0  0  0
 16 21  1  0  0  0  0
 16106  1  0  0  0  0
 17 18  1  0  0  0  0
 17 20  1  0  0  0  0
 17107  1  0  0  0  0
 18 19  1  0  0  0  0
 18108  1  0  0  0  0
 19109  1  0  0  0  0
 20110  1  0  0  0  0
 21 22  1  0  0  0  0
 22 23  1  0  0  0  0
 22 27  1  0  0  0  0
 22111  1  0  0  0  0
 23 24  1  0  0  0  0
 23 76  1  0  0  0  0
 23112  1  0  0  0  0
 24 25  1  0  0  0  0
 25 26  1  0  0  0  0
 25 30  1  0  0  0  0
 25113  1  0  0  0  0
 26 27  1  0  0  0  0
 26 29  1  0  0  0  0
 26114  1  0  0  0  0
 27 28  1  0  0  0  0
 27115  1  0  0  0  0
 28116  1  0  0  0  0
 29117  1  0  0  0  0
 30 31  1  0  0  0  0
 31 32  1  0  0  0  0
 31 36  1  0  0  0  0
 31118  1  0  0  0  0
 32 33  1  0  0  0  0
 32 70  1  0  0  0  0
 32119  1  0  0  0  0
 33 34  1  0  0  0  0
 34 35  1  0  0  0  0
 34 39  1  0  0  0  0
 34120  1  0  0  0  0
 35 36  1  0  0  0  0
 35 38  1  0  0  0  0
 35121  1  0  0  0  0
 36 37  1  0  0  0  0
 36122  1  0  0  0  0
 37123  1  0  0  0  0
 38124  1  0  0  0  0
 39 40  1  0  0  0  0
 40 41  1  0  0  0  0
 40 45  1  0  0  0  0
 40125  1  0  0  0  0
 41 42  1  0  0  0  0
 41 64  1  0  0  0  0
 41126  1  0  0  0  0
 42 43  1  0  0  0  0
 43 44  1  0  0  0  0
 43 48  1  0  0  0  0
 43127  1  0  0  0  0
 44 45  1  0  0  0  0
 44 47  1  0  0  0  0
 44128  1  0  0  0  0
 45 46  1  0  0  0  0
 45129  1  0  0  0  0
 46130  1  0  0  0  0
 47131  1  0  0  0  0
 48 49  1  0  0  0  0
 49 50  1  0  0  0  0
 49 55  1  0  0  0  0
 49132  1  0  0  0  0
 50 51  1  0  0  0  0
 50 58  1  0  0  0  0
 50133  1  0  0  0  0
 51 52  1  0  0  0  0
 52 53  1  0  0  0  0
 52 54  1  0  0  0  0
 52134  1  0  0  0  0
 54 55  1  0  0  0  0
 54 57  1  0  0  0  0
 54135  1  0  0  0  0
 55 56  1  0  0  0  0
 55136  1  0  0  0  0
 56137  1  0  0  0  0
 57138  1  0  0  0  0
 58 59  1  0  0  0  0
 58139  1  0  0  0  0
 58140  1  0  0  0  0
 59 60  1  0  0  0  0
 60 61  1  0  0  0  0
 60141  1  0  0  0  0
 60142  1  0  0  0  0
 61 62  1  0  0  0  0
 61 63  1  0  0  0  0
 61143  1  0  0  0  0
 62144  1  0  0  0  0
 62145  1  0  0  0  0
 62146  1  0  0  0  0
 63147  1  0  0  0  0
 64 65  1  0  0  0  0
 64148  1  0  0  0  0
 64149  1  0  0  0  0
 65 66  1  0  0  0  0
 66 67  1  0  0  0  0
 66150  1  0  0  0  0
 66151  1  0  0  0  0
 67 68  1  0  0  0  0
 67 69  1  0  0  0  0
 67152  1  0  0  0  0
 68153  1  0  0  0  0
 68154  1  0  0  0  0
 68155  1  0  0  0  0
 69156  1  0  0  0  0
 70 71  1  0  0  0  0
 70157  1  0  0  0  0
 70158  1  0  0  0  0
 71 72  1  0  0  0  0
 72 73  1  0  0  0  0
 72159  1  0  0  0  0
 72160  1  0  0  0  0
 73 74  1  0  0  0  0
 73 75  1  0  0  0  0
 73161  1  0  0  0  0
 74162  1  0  0  0  0
 74163  1  0  0  0  0
 74164  1  0  0  0  0
 75165  1  0  0  0  0
 76 77  1  0  0  0  0
 76166  1  0  0  0  0
 76167  1  0  0  0  0
 77 78  1  0  0  0  0
 78 79  1  0  0  0  0
 78168  1  0  0  0  0
 78169  1  0  0  0  0
 79 80  1  0  0  0  0
 79 81  1  0  0  0  0
 79170  1  0  0  0  0
 80171  1  0  0  0  0
 80172  1  0  0  0  0
 80173  1  0  0  0  0
 81174  1  0  0  0  0
 82 83  1  0  0  0  0
 82175  1  0  0  0  0
 82176  1  0  0  0  0
 83 84  1  0  0  0  0
 84 85  1  0  0  0  0
 84177  1  0  0  0  0
 84178  1  0  0  0  0
 85 86  1  0  0  0  0
 85 87  1  0  0  0  0
 85179  1  0  0  0  0
 86180  1  0  0  0  0
 86181  1  0  0  0  0
 86182  1  0  0  0  0
 87183  1  0  0  0  0
 88184  1  0  0  0  0
 89185  1  0  0  0  0
 90186  1  0  0  0  0
M  END
