
 OpenBabel10072620013D

 46 48  0  0  1  0  0  0  0  0999 V2000
    3.3619  -16.1823    3.8308 C   0  0  0  0  0  0  0  0  0  0  0  0
    3.3860  -16.3098    2.3181 C   0  0  0  0  0  0  0  0  0  0  0  0
    3.6131  -15.0443    1.6620 N   0  0  0  0  0  0  0  0  0  0  0  0
    4.8391  -14.4555    1.5532 C   0  0  0  0  0  0  0  0  0  0  0  0
    5.8617  -14.9635    2.0233 O   0  0  0  0  0  0  0  0  0  0  0  0
    4.8966  -13.2408    0.8991 N   0  0  0  0  0  0  0  0  0  0  0  0
    3.8658  -12.5137    0.2628 C   0  0  0  0  0  0  0  0  0  0  0  0
    2.5920  -13.0298    0.2201 N   0  0  0  0  0  0  0  0  0  0  0  0
    1.6211  -12.3257   -0.3993 C   0  0  0  0  0  0  0  0  0  0  0  0
    1.7215  -11.1297   -0.9941 N   0  0  0  0  0  0  0  0  0  0  0  0
    2.9701  -10.6481   -0.9159 C   0  0  0  0  0  0  0  0  0  0  0  0
    4.0784  -11.2547   -0.3377 C   0  0  0  0  0  0  0  0  0  0  0  0
    5.1848  -10.4382   -0.4867 N   0  0  0  0  0  0  0  0  0  0  0  0
    4.7590   -9.3789   -1.1363 C   0  0  0  0  0  0  0  0  0  0  0  0
    3.4144   -9.4379   -1.3753 N   0  0  0  0  0  0  0  0  0  0  0  0
    2.5938   -8.4058   -1.9765 C   0  0  1  0  0  0  0  0  0  0  0  0
    1.7541   -7.5597   -0.9913 C   0  0  2  0  0  0  0  0  0  0  0  0
    1.6533   -6.2424   -1.7633 C   0  0  1  0  0  0  0  0  0  0  0  0
    2.9692   -6.1542   -2.5392 C   0  0  2  0  0  0  0  0  0  0  0  0
    3.4576   -7.4984   -2.7074 O   0  0  0  0  0  0  0  0  0  0  0  0
    4.0592   -5.3128   -1.8706 C   0  0  0  0  0  0  0  0  0  0  0  0
    3.5725   -4.0176   -1.5548 O   0  0  0  0  0  0  0  0  0  0  0  0
    0.5572   -6.3895   -2.6979 O   0  0  0  0  0  0  0  0  0  0  0  0
    2.3620   -7.3736    0.3991 C   0  0  0  0  0  0  0  0  0  0  0  0
    0.4364   -8.0954   -0.7897 O   0  0  0  0  0  0  0  0  0  0  0  0
    6.1990  -12.6717    0.8610 O   0  0  0  0  0  0  0  0  0  0  0  0
    3.1307  -17.1488    4.2893 H   0  0  0  0  0  0  0  0  0  0  0  0
    2.6049  -15.4601    4.1531 H   0  0  0  0  0  0  0  0  0  0  0  0
    4.3292  -15.8464    4.2176 H   0  0  0  0  0  0  0  0  0  0  0  0
    2.4232  -16.6874    1.9610 H   0  0  0  0  0  0  0  0  0  0  0  0
    4.1667  -17.0138    2.0125 H   0  0  0  0  0  0  0  0  0  0  0  0
    2.8325  -14.5426    1.2476 H   0  0  0  0  0  0  0  0  0  0  0  0
    0.6359  -12.7836   -0.4175 H   0  0  0  0  0  0  0  0  0  0  0  0
    5.3769   -8.5428   -1.4391 H   0  0  0  0  0  0  0  0  0  0  0  0
    1.9529   -8.9013   -2.7168 H   0  0  0  0  0  0  0  0  0  0  0  0
    1.4243   -5.3761   -1.1366 H   0  0  0  0  0  0  0  0  0  0  0  0
    2.7832   -5.7467   -3.5407 H   0  0  0  0  0  0  0  0  0  0  0  0
    4.9138   -5.2143   -2.5504 H   0  0  0  0  0  0  0  0  0  0  0  0
    4.4403   -5.7837   -0.9609 H   0  0  0  0  0  0  0  0  0  0  0  0
    4.3267   -3.5090   -1.2045 H   0  0  0  0  0  0  0  0  0  0  0  0
    0.4467   -5.5245   -3.1369 H   0  0  0  0  0  0  0  0  0  0  0  0
    3.3987   -7.0356    0.3802 H   0  0  0  0  0  0  0  0  0  0  0  0
    2.3204   -8.3079    0.9701 H   0  0  0  0  0  0  0  0  0  0  0  0
    1.7775   -6.6478    0.9766 H   0  0  0  0  0  0  0  0  0  0  0  0
   -0.0737   -7.8335   -1.5860 H   0  0  0  0  0  0  0  0  0  0  0  0
    6.7203  -13.3490    1.3400 H   0  0  0  0  0  0  0  0  0  0  0  0
  1  2  1  0  0  0  0
  1 27  1  0  0  0  0
  1 28  1  0  0  0  0
  1 29  1  0  0  0  0
  2  3  1  0  0  0  0
  2 30  1  0  0  0  0
  2 31  1  0  0  0  0
  3  4  1  0  0  0  0
  3 32  1  0  0  0  0
  4  5  2  0  0  0  0
  4  6  1  0  0  0  0
  6  7  1  0  0  0  0
  6 26  1  0  0  0  0
  7  8  2  0  0  0  0
  7 12  1  0  0  0  0
  8  9  1  0  0  0  0
  9 10  2  0  0  0  0
  9 33  1  0  0  0  0
 10 11  1  0  0  0  0
 11 12  2  0  0  0  0
 11 15  1  0  0  0  0
 12 13  1  0  0  0  0
 13 14  2  0  0  0  0
 14 15  1  0  0  0  0
 14 34  1  0  0  0  0
 16 17  1  0  0  0  0
 16 20  1  0  0  0  0
 16 15  1  0  0  0  0
 16 35  1  6  0  0  0
 17 18  1  0  0  0  0
 17 25  1  1  0  0  0
 17 24  1  0  0  0  0
 18 19  1  0  0  0  0
 18 23  1  0  0  0  0
 18 36  1  1  0  0  0
 19 20  1  0  0  0  0
 19 21  1  0  0  0  0
 19 37  1  6  0  0  0
 21 22  1  0  0  0  0
 21 38  1  0  0  0  0
 21 39  1  0  0  0  0
 22 40  1  0  0  0  0
 23 41  1  0  0  0  0
 24 42  1  0  0  0  0
 24 43  1  0  0  0  0
 24 44  1  0  0  0  0
 25 45  1  0  0  0  0
 26 46  1  0  0  0  0
M  END
