
 OpenBabel10072620233D

 56 59  0  0  0  0  0  0  0  0999 V2000
    2.5989    0.2965    4.0540 C   0  0  0  0  0  0  0  0  0  0  0  0
    3.2532    1.0621    3.1730 C   0  0  0  0  0  0  0  0  0  0  0  0
    3.2555    0.8366    1.6885 C   0  0  0  0  0  0  0  0  0  0  0  0
    4.6099    0.6826    1.1635 N   0  0  0  0  0  0  0  0  0  0  0  0
    5.3249   -0.5089    1.1360 C   0  0  0  0  0  0  0  0  0  0  0  0
    6.5366   -0.2473    0.4850 C   0  0  0  0  0  0  0  0  0  0  0  0
    7.4590   -1.2965    0.2985 C   0  0  0  0  0  0  0  0  0  0  0  0
    7.1399   -2.5755    0.7706 C   0  0  0  0  0  0  0  0  0  0  0  0
    5.9378   -2.8196    1.4347 C   0  0  0  0  0  0  0  0  0  0  0  0
    5.0094   -1.7889    1.6244 C   0  0  0  0  0  0  0  0  0  0  0  0
    8.3349   -3.8748    0.5572 S   0  0  0  0  0  0  0  0  0  0  0  0
    9.6298   -3.3168    0.8877 O   0  0  0  0  0  0  0  0  0  0  0  0
    7.8415   -5.0609    1.2213 O   0  0  0  0  0  0  0  0  0  0  0  0
    8.2918   -4.1533   -1.1231 N   0  0  0  0  0  0  0  0  0  0  0  0
    7.0500   -4.7873   -1.6722 C   0  0  0  0  0  0  0  0  0  0  0  0
    7.0874   -6.3209   -1.5581 C   0  0  0  0  0  0  0  0  0  0  0  0
    8.2758   -6.8683   -2.1495 O   0  0  0  0  0  0  0  0  0  0  0  0
    9.4431   -6.3372   -1.5052 C   0  0  0  0  0  0  0  0  0  0  0  0
    9.5076   -4.8206   -1.6889 C   0  0  0  0  0  0  0  0  0  0  0  0
    6.5204    1.1298    0.1436 C   0  0  0  0  0  0  0  0  0  0  0  0
    5.3334    1.6853    0.5567 C   0  0  0  0  0  0  0  0  0  0  0  0
    4.8588    2.9242    0.4514 O   0  0  0  0  0  0  0  0  0  0  0  0
    7.5161    1.8162   -0.5595 N   0  0  0  0  0  0  0  0  0  0  0  0
    8.5783    1.8617    0.0948 N   0  0  0  0  0  0  0  0  0  0  0  0
    9.6490    2.4327   -0.5538 C   0  0  0  0  0  0  0  0  0  0  0  0
    9.7462    2.9731   -2.1553 S   0  0  0  0  0  0  0  0  0  0  0  0
   10.8295    2.5329    0.1497 N   0  0  0  0  0  0  0  0  0  0  0  0
   11.1411    2.2776    1.5019 C   0  0  0  0  0  0  0  0  0  0  0  0
   10.2167    2.0379    2.5201 C   0  0  0  0  0  0  0  0  0  0  0  0
   10.6538    1.8308    3.8372 C   0  0  0  0  0  0  0  0  0  0  0  0
   12.0141    1.8532    4.1468 C   0  0  0  0  0  0  0  0  0  0  0  0
   12.9445    2.0843    3.1401 C   0  0  0  0  0  0  0  0  0  0  0  0
   12.5021    2.3014    1.8388 C   0  0  0  0  0  0  0  0  0  0  0  0
   13.4138    2.5251    0.8780 F   0  0  0  0  0  0  0  0  0  0  0  0
    2.6456    0.5064    5.1187 H   0  0  0  0  0  0  0  0  0  0  0  0
    2.0133   -0.5640    3.7445 H   0  0  0  0  0  0  0  0  0  0  0  0
    3.8245    1.9174    3.5300 H   0  0  0  0  0  0  0  0  0  0  0  0
    2.7770    1.6790    1.1765 H   0  0  0  0  0  0  0  0  0  0  0  0
    2.6960   -0.0633    1.4102 H   0  0  0  0  0  0  0  0  0  0  0  0
    8.4056   -1.1102   -0.2031 H   0  0  0  0  0  0  0  0  0  0  0  0
    5.7054   -3.8123    1.8148 H   0  0  0  0  0  0  0  0  0  0  0  0
    4.0738   -1.9794    2.1420 H   0  0  0  0  0  0  0  0  0  0  0  0
    6.9884   -4.5058   -2.7315 H   0  0  0  0  0  0  0  0  0  0  0  0
    6.1544   -4.3864   -1.1877 H   0  0  0  0  0  0  0  0  0  0  0  0
    6.2313   -6.7476   -2.0921 H   0  0  0  0  0  0  0  0  0  0  0  0
    7.0195   -6.6611   -0.5194 H   0  0  0  0  0  0  0  0  0  0  0  0
   10.3174   -6.8046   -1.9686 H   0  0  0  0  0  0  0  0  0  0  0  0
    9.4374   -6.6229   -0.4478 H   0  0  0  0  0  0  0  0  0  0  0  0
    9.5417   -4.5815   -2.7590 H   0  0  0  0  0  0  0  0  0  0  0  0
   10.4211   -4.4116   -1.2494 H   0  0  0  0  0  0  0  0  0  0  0  0
    5.5391    3.4412   -0.0231 H   0  0  0  0  0  0  0  0  0  0  0  0
   11.6187    2.8134   -0.4276 H   0  0  0  0  0  0  0  0  0  0  0  0
    9.1464    2.0233    2.3498 H   0  0  0  0  0  0  0  0  0  0  0  0
    9.9247    1.6527    4.6255 H   0  0  0  0  0  0  0  0  0  0  0  0
   12.3440    1.6827    5.1688 H   0  0  0  0  0  0  0  0  0  0  0  0
   14.0078    2.1038    3.3575 H   0  0  0  0  0  0  0  0  0  0  0  0
  1  2  2  0  0  0  0
  1 35  1  0  0  0  0
  1 36  1  0  0  0  0
  2  3  1  0  0  0  0
  2 37  1  0  0  0  0
  3  4  1  0  0  0  0
  3 38  1  0  0  0  0
  3 39  1  0  0  0  0
  4  5  1  0  0  0  0
  4 21  1  0  0  0  0
  5  6  2  0  0  0  0
  5 10  1  0  0  0  0
  6  7  1  0  0  0  0
  6 20  1  0  0  0  0
  7  8  2  0  0  0  0
  7 40  1  0  0  0  0
  8  9  1  0  0  0  0
  8 11  1  0  0  0  0
  9 10  2  0  0  0  0
  9 41  1  0  0  0  0
 10 42  1  0  0  0  0
 11 12  2  0  0  0  0
 11 13  2  0  0  0  0
 11 14  1  0  0  0  0
 14 15  1  0  0  0  0
 14 19  1  0  0  0  0
 15 16  1  0  0  0  0
 15 43  1  0  0  0  0
 15 44  1  0  0  0  0
 16 17  1  0  0  0  0
 16 45  1  0  0  0  0
 16 46  1  0  0  0  0
 17 18  1  0  0  0  0
 18 19  1  0  0  0  0
 18 47  1  0  0  0  0
 18 48  1  0  0  0  0
 19 49  1  0  0  0  0
 19 50  1  0  0  0  0
 20 21  2  0  0  0  0
 20 23  1  0  0  0  0
 21 22  1  0  0  0  0
 22 51  1  0  0  0  0
 23 24  2  3  0  0  0
 24 25  1  0  0  0  0
 25 26  2  0  0  0  0
 25 27  1  0  0  0  0
 27 28  1  0  0  0  0
 27 52  1  0  0  0  0
 28 29  2  0  0  0  0
 28 33  1  0  0  0  0
 29 30  1  0  0  0  0
 29 53  1  0  0  0  0
 30 31  2  0  0  0  0
 30 54  1  0  0  0  0
 31 32  1  0  0  0  0
 31 55  1  0  0  0  0
 32 33  2  0  0  0  0
 32 56  1  0  0  0  0
 33 34  1  0  0  0  0
M  END
