
 OpenBabel10072620203D

 32 33  0  0  0  0  0  0  0  0999 V2000
    0.9111    0.0533   -0.0876 C   0  0  0  0  0  0  0  0  0  0  0  0
    2.1559    0.1581    0.5921 O   0  0  0  0  0  0  0  0  0  0  0  0
    2.9430   -0.9600    0.6144 C   0  0  0  0  0  0  0  0  0  0  0  0
    2.6819   -2.1574   -0.0509 C   0  0  0  0  0  0  0  0  0  0  0  0
    3.5742   -3.2297    0.0685 C   0  0  0  0  0  0  0  0  0  0  0  0
    4.7381   -3.1153    0.8525 C   0  0  0  0  0  0  0  0  0  0  0  0
    4.9946   -1.9098    1.5074 C   0  0  0  0  0  0  0  0  0  0  0  0
    4.1001   -0.8424    1.3861 C   0  0  0  0  0  0  0  0  0  0  0  0
    5.5658   -4.2075    0.8799 O   0  0  0  0  0  0  0  0  0  0  0  0
    6.6821   -4.1555    1.7574 C   0  0  0  0  0  0  0  0  0  0  0  0
    3.2391   -4.4794   -0.5491 N   0  0  0  0  0  0  0  0  0  0  0  0
    2.4195   -5.6050    0.4194 S   0  0  0  0  0  0  0  0  0  0  0  0
    2.2712   -6.8149   -0.3596 O   0  0  0  0  0  0  0  0  0  0  0  0
    2.9547   -5.6209    1.7641 O   0  0  0  0  0  0  0  0  0  0  0  0
    0.7507   -4.9955    0.6299 C   0  0  0  0  0  0  0  0  0  0  0  0
    0.0644   -4.5191    1.7340 C   0  0  0  0  0  0  0  0  0  0  0  0
   -1.2699   -4.1226    1.4148 C   0  0  0  0  0  0  0  0  0  0  0  0
   -1.5376   -4.3237    0.0844 C   0  0  0  0  0  0  0  0  0  0  0  0
   -0.2228   -4.9492   -0.7812 S   0  0  0  0  0  0  0  0  0  0  0  0
   -3.1894   -3.9307   -0.7078 Br  0  0  0  0  0  0  0  0  0  0  0  0
    0.3834    1.0032    0.0327 H   0  0  0  0  0  0  0  0  0  0  0  0
    0.2847   -0.7322    0.3485 H   0  0  0  0  0  0  0  0  0  0  0  0
    1.0593   -0.1110   -1.1598 H   0  0  0  0  0  0  0  0  0  0  0  0
    1.7943   -2.2791   -0.6602 H   0  0  0  0  0  0  0  0  0  0  0  0
    5.8782   -1.7636    2.1190 H   0  0  0  0  0  0  0  0  0  0  0  0
    4.3083    0.0923    1.9039 H   0  0  0  0  0  0  0  0  0  0  0  0
    7.1825   -5.1273    1.7244 H   0  0  0  0  0  0  0  0  0  0  0  0
    6.3653   -3.9808    2.7902 H   0  0  0  0  0  0  0  0  0  0  0  0
    7.4014   -3.3990    1.4270 H   0  0  0  0  0  0  0  0  0  0  0  0
    2.8237   -4.4235   -1.4772 H   0  0  0  0  0  0  0  0  0  0  0  0
    0.5075   -4.4634    2.7228 H   0  0  0  0  0  0  0  0  0  0  0  0
   -1.9831   -3.7272    2.1290 H   0  0  0  0  0  0  0  0  0  0  0  0
  1  2  1  0  0  0  0
  1 21  1  0  0  0  0
  1 22  1  0  0  0  0
  1 23  1  0  0  0  0
  2  3  1  0  0  0  0
  3  4  2  0  0  0  0
  3  8  1  0  0  0  0
  4  5  1  0  0  0  0
  4 24  1  0  0  0  0
  5  6  2  0  0  0  0
  5 11  1  0  0  0  0
  6  7  1  0  0  0  0
  6  9  1  0  0  0  0
  7  8  2  0  0  0  0
  7 25  1  0  0  0  0
  8 26  1  0  0  0  0
  9 10  1  0  0  0  0
 10 27  1  0  0  0  0
 10 28  1  0  0  0  0
 10 29  1  0  0  0  0
 11 12  1  0  0  0  0
 11 30  1  0  0  0  0
 12 13  2  0  0  0  0
 12 14  2  0  0  0  0
 12 15  1  0  0  0  0
 15 16  2  0  0  0  0
 15 19  1  0  0  0  0
 16 17  1  0  0  0  0
 16 31  1  0  0  0  0
 17 18  2  0  0  0  0
 17 32  1  0  0  0  0
 18 19  1  0  0  0  0
 18 20  1  0  0  0  0
M  END
