
 OpenBabel10072620033D

 49 52  0  0  1  0  0  0  0  0999 V2000
   -2.2668   -0.4905    0.5895 C   0  0  0  0  0  0  0  0  0  0  0  0
   -0.8196   -0.1906    0.3862 C   0  0  0  0  0  0  0  0  0  0  0  0
   -0.3578    1.0095    0.2333 N   0  0  0  0  0  0  0  0  0  0  0  0
    1.0174    0.8877    0.0750 N   0  0  0  0  0  0  0  0  0  0  0  0
    1.4619   -0.4519    0.1267 C   0  0  0  0  0  0  0  0  0  0  0  0
    2.5889   -0.9069    0.0009 O   0  0  0  0  0  0  0  0  0  0  0  0
    0.2181   -1.2678    0.3594 C   0  0  3  0  0  0  0  0  0  0  0  0
    0.2694   -1.8538    1.6968 N   0  0  0  0  0  0  0  0  0  0  0  0
    0.5509   -3.0707    1.6828 N   0  0  0  0  0  0  0  0  0  0  0  0
    0.6128   -3.5653    2.9989 C   0  0  0  0  0  0  0  0  0  0  0  0
   -0.1986   -4.6468    3.3609 C   0  0  0  0  0  0  0  0  0  0  0  0
   -0.1915   -5.1387    4.6706 C   0  0  0  0  0  0  0  0  0  0  0  0
    0.6446   -4.5529    5.6240 C   0  0  0  0  0  0  0  0  0  0  0  0
    1.4890   -3.4962    5.2684 C   0  0  0  0  0  0  0  0  0  0  0  0
    1.4825   -3.0179    3.9548 C   0  0  0  0  0  0  0  0  0  0  0  0
    0.5125   -5.0262    7.3348 S   0  0  0  0  0  0  0  0  0  0  0  0
    0.9058   -3.8648    8.1061 O   0  0  0  0  0  0  0  0  0  0  0  0
   -0.7911   -5.6207    7.5466 O   0  0  0  0  0  0  0  0  0  0  0  0
    1.7380   -6.1372    7.5281 N   0  0  0  0  0  0  0  0  0  0  0  0
    1.3582   -7.4724    7.4753 C   0  0  0  0  0  0  0  0  0  0  0  0
    0.7069   -7.9164    6.3996 N   0  0  0  0  0  0  0  0  0  0  0  0
    0.3926   -9.2240    6.4217 C   0  0  0  0  0  0  0  0  0  0  0  0
    0.7526  -10.0775    7.4409 C   0  0  0  0  0  0  0  0  0  0  0  0
    1.4940   -9.5126    8.4539 C   0  0  0  0  0  0  0  0  0  0  0  0
    1.8290   -8.2089    8.4885 N   0  0  0  0  0  0  0  0  0  0  0  0
    1.8484    2.0085    0.0292 C   0  0  0  0  0  0  0  0  0  0  0  0
    3.0786    1.9738    0.0541 O   0  0  0  0  0  0  0  0  0  0  0  0
    1.2231    3.3557    0.0139 C   0  0  0  0  0  0  0  0  0  0  0  0
    1.7777    4.3422    0.8324 C   0  0  0  0  0  0  0  0  0  0  0  0
    1.2148    5.6048    0.8023 C   0  0  0  0  0  0  0  0  0  0  0  0
    0.1661    5.9373    0.0184 N   0  0  0  0  0  0  0  0  0  0  0  0
   -0.3330    4.9691   -0.7804 C   0  0  0  0  0  0  0  0  0  0  0  0
    0.1577    3.6764   -0.8257 C   0  0  0  0  0  0  0  0  0  0  0  0
   -2.8622    0.4223    0.4940 H   0  0  0  0  0  0  0  0  0  0  0  0
   -2.4202   -0.9128    1.5866 H   0  0  0  0  0  0  0  0  0  0  0  0
   -2.5953   -1.2125   -0.1621 H   0  0  0  0  0  0  0  0  0  0  0  0
    0.0259   -1.9722   -0.4561 H   0  0  0  0  0  0  0  0  0  0  0  0
   -0.8644   -5.0867    2.6222 H   0  0  0  0  0  0  0  0  0  0  0  0
   -0.8575   -5.9548    4.9419 H   0  0  0  0  0  0  0  0  0  0  0  0
    2.1263   -3.0185    6.0094 H   0  0  0  0  0  0  0  0  0  0  0  0
    2.1359   -2.1912    3.6804 H   0  0  0  0  0  0  0  0  0  0  0  0
    2.3105   -5.9397    8.3420 H   0  0  0  0  0  0  0  0  0  0  0  0
   -0.1688   -9.5781    5.5620 H   0  0  0  0  0  0  0  0  0  0  0  0
    0.4738  -11.1220    7.4416 H   0  0  0  0  0  0  0  0  0  0  0  0
    1.8455  -10.1105    9.2914 H   0  0  0  0  0  0  0  0  0  0  0  0
    2.6268    4.1297    1.4753 H   0  0  0  0  0  0  0  0  0  0  0  0
    1.6062    6.4045    1.4263 H   0  0  0  0  0  0  0  0  0  0  0  0
   -1.1655    5.2753   -1.4075 H   0  0  0  0  0  0  0  0  0  0  0  0
   -0.2848    2.9551   -1.5017 H   0  0  0  0  0  0  0  0  0  0  0  0
  1  2  1  0  0  0  0
  1 34  1  0  0  0  0
  1 35  1  0  0  0  0
  1 36  1  0  0  0  0
  2  3  2  0  0  0  0
  2  7  1  0  0  0  0
  3  4  1  0  0  0  0
  4  5  1  0  0  0  0
  4 26  1  0  0  0  0
  5  6  2  0  0  0  0
  5  7  1  0  0  0  0
  7  8  1  0  0  0  0
  7 37  1  0  0  0  0
  8  9  2  3  0  0  0
  9 10  1  0  0  0  0
 10 11  2  0  0  0  0
 10 15  1  0  0  0  0
 11 12  1  0  0  0  0
 11 38  1  0  0  0  0
 12 13  2  0  0  0  0
 12 39  1  0  0  0  0
 13 14  1  0  0  0  0
 13 16  1  0  0  0  0
 14 15  2  0  0  0  0
 14 40  1  0  0  0  0
 15 41  1  0  0  0  0
 16 17  2  0  0  0  0
 16 18  2  0  0  0  0
 16 19  1  0  0  0  0
 19 20  1  0  0  0  0
 19 42  1  0  0  0  0
 20 21  2  0  0  0  0
 20 25  1  0  0  0  0
 21 22  1  0  0  0  0
 22 23  2  0  0  0  0
 22 43  1  0  0  0  0
 23 24  1  0  0  0  0
 23 44  1  0  0  0  0
 24 25  2  0  0  0  0
 24 45  1  0  0  0  0
 26 27  2  0  0  0  0
 26 28  1  0  0  0  0
 28 29  2  0  0  0  0
 28 33  1  0  0  0  0
 29 30  1  0  0  0  0
 29 46  1  0  0  0  0
 30 31  2  0  0  0  0
 30 47  1  0  0  0  0
 31 32  1  0  0  0  0
 32 33  2  0  0  0  0
 32 48  1  0  0  0  0
 33 49  1  0  0  0  0
M  END
