
 OpenBabel10072620213D

 47 48  0  0  1  0  0  0  0  0999 V2000
    2.4410   -4.2099    3.9924 C   0  0  0  0  0  0  0  0  0  0  0  0
    3.0073   -3.4015    4.9286 C   0  0  0  0  0  0  0  0  0  0  0  0
    3.6239   -2.0752    4.5148 C   0  0  0  0  0  0  0  0  0  0  0  0
    4.1845   -1.8692    3.2867 C   0  0  0  0  0  0  0  0  0  0  0  0
    4.6219   -0.6198    2.9499 C   0  0  3  0  0  0  0  0  0  0  0  0
    4.5019    0.4151    3.7971 C   0  0  0  0  0  0  0  0  0  0  0  0
    4.9188    1.5599    3.4356 O   0  0  0  0  0  0  0  0  0  0  0  0
    3.9536    0.2752    5.0165 N   0  0  0  0  0  0  0  0  0  0  0  0
    3.5023   -0.9291    5.4269 C   0  0  3  0  0  0  0  0  0  0  0  0
    2.0742   -0.7731    5.7385 N   0  0  0  0  0  0  0  0  0  0  0  0
    6.1042   -0.7523    2.6409 C   0  0  1  0  0  0  0  0  0  0  0  0
    6.8595   -1.2701    3.8532 C   0  0  2  0  0  0  0  0  0  0  0  0
    6.8382   -2.7918    3.6036 C   0  0  1  0  0  0  0  0  0  0  0  0
    7.0284   -2.8498    2.0709 C   0  0  2  0  0  0  0  0  0  0  0  0
    6.3300   -1.7345    1.5840 O   0  0  0  0  0  0  0  0  0  0  0  0
    6.4462   -4.1354    1.5065 C   0  0  0  0  0  0  0  0  0  0  0  0
    6.6343   -4.1625    0.0992 O   0  0  0  0  0  0  0  0  0  0  0  0
    5.9717   -5.6258   -0.5431 P   0  0  3  0  0  0  0  0  0  0  0  0
    4.6067   -4.9216   -0.7391 O   0  0  0  0  0  0  0  0  0  0  0  0
    7.2156   -5.5999   -1.8851 C   0  0  0  0  0  0  0  0  0  0  0  0
    8.4564   -6.3569   -1.4404 C   0  0  0  0  0  0  0  0  0  0  0  0
    8.4987   -6.8850   -0.2852 O   0  0  0  0  0  0  0  0  0  0  0  0
    9.5684   -6.4741   -2.3158 O   0  0  0  0  0  0  0  0  0  0  0  0
    5.3091   -7.0891   -1.1855 O   0  0  0  0  0  0  0  0  0  0  0  0
    7.7575   -3.5329    4.3740 O   0  0  0  0  0  0  0  0  0  0  0  0
    6.2202   -0.9205    5.0712 O   0  0  0  0  0  0  0  0  0  0  0  0
    2.0224   -5.1104    4.2734 H   0  0  0  0  0  0  0  0  0  0  0  0
    2.4300   -3.9227    3.0013 H   0  0  0  0  0  0  0  0  0  0  0  0
    3.0183   -3.6887    5.9198 H   0  0  0  0  0  0  0  0  0  0  0  0
    4.2769   -2.6506    2.6190 H   0  0  0  0  0  0  0  0  0  0  0  0
    3.9566   -0.3479    2.1572 H   0  0  0  0  0  0  0  0  0  0  0  0
    3.8808    1.0549    5.6131 H   0  0  0  0  0  0  0  0  0  0  0  0
    4.1408   -1.1806    6.2478 H   0  0  0  0  0  0  0  0  0  0  0  0
    1.5645   -0.5353    4.8875 H   0  0  0  0  0  0  0  0  0  0  0  0
    1.9553   -0.0284    6.4253 H   0  0  0  0  0  0  0  0  0  0  0  0
    6.4438    0.2197    2.3496 H   0  0  0  0  0  0  0  0  0  0  0  0
    7.8428   -0.8614    3.9572 H   0  0  0  0  0  0  0  0  0  0  0  0
    5.9394   -3.2743    3.9266 H   0  0  0  0  0  0  0  0  0  0  0  0
    8.0607   -2.8359    1.7897 H   0  0  0  0  0  0  0  0  0  0  0  0
    5.4002   -4.1805    1.7274 H   0  0  0  0  0  0  0  0  0  0  0  0
    6.9406   -4.9751    1.9486 H   0  0  0  0  0  0  0  0  0  0  0  0
    7.4772   -4.5869   -2.1095 H   0  0  0  0  0  0  0  0  0  0  0  0
    6.8080   -6.0649   -2.7583 H   0  0  0  0  0  0  0  0  0  0  0  0
    9.5372   -6.0848   -3.1675 H   0  0  0  0  0  0  0  0  0  0  0  0
    4.5637   -7.3755   -0.6349 H   0  0  0  0  0  0  0  0  0  0  0  0
    8.6569   -3.2152    4.1981 H   0  0  0  0  0  0  0  0  0  0  0  0
    5.3098   -1.2551    5.0663 H   0  0  0  0  0  0  0  0  0  0  0  0
  1  2  2  0  0  0  0
  1 27  1  0  0  0  0
  1 28  1  0  0  0  0
  2  3  1  0  0  0  0
  2 29  1  0  0  0  0
  3  4  2  0  0  0  0
  3  9  1  0  0  0  0
  4  5  1  0  0  0  0
  4 30  1  0  0  0  0
  5  6  1  0  0  0  0
  5 11  1  0  0  0  0
  5 31  1  0  0  0  0
  6  7  2  0  0  0  0
  6  8  1  0  0  0  0
  8  9  1  0  0  0  0
  8 32  1  0  0  0  0
  9 10  1  0  0  0  0
  9 33  1  0  0  0  0
 10 34  1  0  0  0  0
 10 35  1  0  0  0  0
 11 12  1  0  0  0  0
 11 15  1  0  0  0  0
 11 36  1  6  0  0  0
 12 13  1  0  0  0  0
 12 26  1  0  0  0  0
 12 37  1  6  0  0  0
 13 14  1  0  0  0  0
 13 25  1  0  0  0  0
 13 38  1  1  0  0  0
 14 15  1  0  0  0  0
 14 16  1  0  0  0  0
 14 39  1  6  0  0  0
 16 17  1  0  0  0  0
 16 40  1  0  0  0  0
 16 41  1  0  0  0  0
 17 18  1  0  0  0  0
 18 19  2  0  0  0  0
 18 20  1  0  0  0  0
 18 24  1  0  0  0  0
 20 21  1  0  0  0  0
 20 42  1  0  0  0  0
 20 43  1  0  0  0  0
 21 22  2  0  0  0  0
 21 23  1  0  0  0  0
 23 44  1  0  0  0  0
 24 45  1  0  0  0  0
 25 46  1  0  0  0  0
 26 47  1  0  0  0  0
M  END
