
 OpenBabel10072619473D

 40 41  0  0  0  0  0  0  0  0999 V2000
    2.1708    1.8484    0.3369 C   0  0  0  0  0  0  0  0  0  0  0  0
    1.1127    0.7966    0.1763 C   0  0  0  0  0  0  0  0  0  0  0  0
    1.4238   -0.4517   -0.3642 C   0  0  0  0  0  0  0  0  0  0  0  0
    0.4386   -1.4386   -0.5752 C   0  0  0  0  0  0  0  0  0  0  0  0
   -0.9071   -1.1419   -0.2468 C   0  0  0  0  0  0  0  0  0  0  0  0
   -1.2384    0.1335    0.2893 C   0  0  0  0  0  0  0  0  0  0  0  0
   -0.2164    1.0825    0.4829 C   0  0  0  0  0  0  0  0  0  0  0  0
   -2.6410    0.5998    0.5917 C   0  0  0  0  0  0  0  0  0  0  0  0
   -2.2389   -2.3396   -0.5510 S   0  0  0  0  0  0  0  0  0  0  0  0
   -3.3825   -1.5816   -1.0148 O   0  0  0  0  0  0  0  0  0  0  0  0
   -1.7393   -3.4411   -1.3446 O   0  0  0  0  0  0  0  0  0  0  0  0
   -2.5833   -2.8658    1.0333 N   0  0  0  0  0  0  0  0  0  0  0  0
   -1.7956   -3.9544    1.5338 C   0  0  0  0  0  0  0  0  0  0  0  0
   -0.6526   -3.6927    2.2898 C   0  0  0  0  0  0  0  0  0  0  0  0
    0.1258   -4.7524    2.7616 C   0  0  0  0  0  0  0  0  0  0  0  0
   -0.2345   -6.0708    2.4768 C   0  0  0  0  0  0  0  0  0  0  0  0
   -1.3637   -6.3353    1.7003 C   0  0  0  0  0  0  0  0  0  0  0  0
   -2.1360   -5.2773    1.2131 C   0  0  0  0  0  0  0  0  0  0  0  0
   -3.2913   -5.4887    0.5051 O   0  0  0  0  0  0  0  0  0  0  0  0
   -3.1136   -6.3744   -0.5963 C   0  0  0  0  0  0  0  0  0  0  0  0
    0.9037   -2.7350   -1.1826 C   0  0  0  0  0  0  0  0  0  0  0  0
    3.1601    1.3962    0.4576 H   0  0  0  0  0  0  0  0  0  0  0  0
    1.9834    2.4576    1.2271 H   0  0  0  0  0  0  0  0  0  0  0  0
    2.1867    2.5004   -0.5420 H   0  0  0  0  0  0  0  0  0  0  0  0
    2.4570   -0.6548   -0.6461 H   0  0  0  0  0  0  0  0  0  0  0  0
   -0.4670    2.0748    0.8582 H   0  0  0  0  0  0  0  0  0  0  0  0
   -3.2267   -0.1540    1.1205 H   0  0  0  0  0  0  0  0  0  0  0  0
   -3.1465    0.8890   -0.3343 H   0  0  0  0  0  0  0  0  0  0  0  0
   -2.6342    1.4779    1.2478 H   0  0  0  0  0  0  0  0  0  0  0  0
   -2.6177   -2.0815    1.6784 H   0  0  0  0  0  0  0  0  0  0  0  0
   -0.3570   -2.6734    2.5185 H   0  0  0  0  0  0  0  0  0  0  0  0
    1.0124   -4.5496    3.3575 H   0  0  0  0  0  0  0  0  0  0  0  0
    0.3622   -6.8938    2.8640 H   0  0  0  0  0  0  0  0  0  0  0  0
   -1.6453   -7.3656    1.5034 H   0  0  0  0  0  0  0  0  0  0  0  0
   -3.2122   -7.4130   -0.2661 H   0  0  0  0  0  0  0  0  0  0  0  0
   -2.1552   -6.2257   -1.1067 H   0  0  0  0  0  0  0  0  0  0  0  0
   -3.9115   -6.1736   -1.3167 H   0  0  0  0  0  0  0  0  0  0  0  0
    1.9964   -2.7748   -1.2579 H   0  0  0  0  0  0  0  0  0  0  0  0
    0.5176   -2.8373   -2.2004 H   0  0  0  0  0  0  0  0  0  0  0  0
    0.6127   -3.5893   -0.5661 H   0  0  0  0  0  0  0  0  0  0  0  0
  1  2  1  0  0  0  0
  1 22  1  0  0  0  0
  1 23  1  0  0  0  0
  1 24  1  0  0  0  0
  2  3  2  0  0  0  0
  2  7  1  0  0  0  0
  3  4  1  0  0  0  0
  3 25  1  0  0  0  0
  4  5  2  0  0  0  0
  4 21  1  0  0  0  0
  5  6  1  0  0  0  0
  5  9  1  0  0  0  0
  6  7  2  0  0  0  0
  6  8  1  0  0  0  0
  7 26  1  0  0  0  0
  8 27  1  0  0  0  0
  8 28  1  0  0  0  0
  8 29  1  0  0  0  0
  9 10  2  0  0  0  0
  9 11  2  0  0  0  0
  9 12  1  0  0  0  0
 12 13  1  0  0  0  0
 12 30  1  0  0  0  0
 13 14  2  0  0  0  0
 13 18  1  0  0  0  0
 14 15  1  0  0  0  0
 14 31  1  0  0  0  0
 15 16  2  0  0  0  0
 15 32  1  0  0  0  0
 16 17  1  0  0  0  0
 16 33  1  0  0  0  0
 17 18  2  0  0  0  0
 17 34  1  0  0  0  0
 18 19  1  0  0  0  0
 19 20  1  0  0  0  0
 20 35  1  0  0  0  0
 20 36  1  0  0  0  0
 20 37  1  0  0  0  0
 21 38  1  0  0  0  0
 21 39  1  0  0  0  0
 21 40  1  0  0  0  0
M  END
