
 OpenBabel10072620203D

 38 41  0  0  0  0  0  0  0  0999 V2000
   11.2785    3.7685   -4.5293 C   0  0  0  0  0  0  0  0  0  0  0  0
   10.2005    4.3219   -5.2717 O   0  0  0  0  0  0  0  0  0  0  0  0
    8.9536    4.2099   -4.7217 C   0  0  0  0  0  0  0  0  0  0  0  0
    8.6626    3.7876   -3.4245 C   0  0  0  0  0  0  0  0  0  0  0  0
    7.3338    3.7116   -2.9898 C   0  0  0  0  0  0  0  0  0  0  0  0
    6.2814    4.0577   -3.8474 C   0  0  0  0  0  0  0  0  0  0  0  0
    6.5830    4.5008   -5.1417 C   0  0  0  0  0  0  0  0  0  0  0  0
    7.9088    4.5746   -5.5717 C   0  0  0  0  0  0  0  0  0  0  0  0
    4.8448    3.9619   -3.3896 C   0  0  0  0  0  0  0  0  0  0  0  0
    4.2077    5.2876   -3.2056 C   0  0  0  0  0  0  0  0  0  0  0  0
    3.5115    5.9880   -4.0951 N   0  0  0  0  0  0  0  0  0  0  0  0
    3.0883    7.1705   -3.4933 N   0  0  0  0  0  0  0  0  0  0  0  0
    3.5478    7.1253   -2.2768 C   0  0  0  0  0  0  0  0  0  0  0  0
    4.2397    5.9892   -2.0344 N   0  0  0  0  0  0  0  0  0  0  0  0
    4.7600    5.7547   -0.8002 N   0  0  0  0  0  0  0  0  0  0  0  0
    4.4323    6.7952   -0.0865 C   0  0  0  0  0  0  0  0  0  0  0  0
    3.4877    8.0898   -0.8719 S   0  0  0  0  0  0  0  0  0  0  0  0
    4.7511    7.0331    1.3330 C   0  0  0  0  0  0  0  0  0  0  0  0
    5.4295    6.1079    2.0267 C   0  0  0  0  0  0  0  0  0  0  0  0
    5.7384    6.3149    3.3989 C   0  0  0  0  0  0  0  0  0  0  0  0
    6.4183    5.4742    4.2730 C   0  0  0  0  0  0  0  0  0  0  0  0
    6.4768    6.1105    5.5361 C   0  0  0  0  0  0  0  0  0  0  0  0
    5.8310    7.3096    5.3797 C   0  0  0  0  0  0  0  0  0  0  0  0
    5.3859    7.4438    4.1076 O   0  0  0  0  0  0  0  0  0  0  0  0
   12.1782    3.8349   -5.1486 H   0  0  0  0  0  0  0  0  0  0  0  0
   11.1061    2.7102   -4.3059 H   0  0  0  0  0  0  0  0  0  0  0  0
   11.4593    4.3422   -3.6147 H   0  0  0  0  0  0  0  0  0  0  0  0
    9.4452    3.5127   -2.7253 H   0  0  0  0  0  0  0  0  0  0  0  0
    7.1296    3.3785   -1.9743 H   0  0  0  0  0  0  0  0  0  0  0  0
    5.7868    4.7939   -5.8243 H   0  0  0  0  0  0  0  0  0  0  0  0
    8.1282    4.9141   -6.5810 H   0  0  0  0  0  0  0  0  0  0  0  0
    4.7813    3.3795   -2.4619 H   0  0  0  0  0  0  0  0  0  0  0  0
    4.2808    3.3863   -4.1346 H   0  0  0  0  0  0  0  0  0  0  0  0
    4.4190    7.9613    1.7861 H   0  0  0  0  0  0  0  0  0  0  0  0
    5.7546    5.1810    1.5624 H   0  0  0  0  0  0  0  0  0  0  0  0
    6.8268    4.5048    4.0205 H   0  0  0  0  0  0  0  0  0  0  0  0
    6.9305    5.7412    6.4448 H   0  0  0  0  0  0  0  0  0  0  0  0
    5.6131    8.1365    6.0411 H   0  0  0  0  0  0  0  0  0  0  0  0
  1  2  1  0  0  0  0
  1 25  1  0  0  0  0
  1 26  1  0  0  0  0
  1 27  1  0  0  0  0
  2  3  1  0  0  0  0
  3  4  2  0  0  0  0
  3  8  1  0  0  0  0
  4  5  1  0  0  0  0
  4 28  1  0  0  0  0
  5  6  2  0  0  0  0
  5 29  1  0  0  0  0
  6  7  1  0  0  0  0
  6  9  1  0  0  0  0
  7  8  2  0  0  0  0
  7 30  1  0  0  0  0
  8 31  1  0  0  0  0
  9 10  1  0  0  0  0
  9 32  1  0  0  0  0
  9 33  1  0  0  0  0
 10 11  2  0  0  0  0
 10 14  1  0  0  0  0
 11 12  1  0  0  0  0
 12 13  2  0  0  0  0
 13 14  1  0  0  0  0
 13 17  1  0  0  0  0
 14 15  1  0  0  0  0
 15 16  2  0  0  0  0
 16 17  1  0  0  0  0
 16 18  1  0  0  0  0
 18 19  2  0  0  0  0
 18 34  1  0  0  0  0
 19 20  1  0  0  0  0
 19 35  1  0  0  0  0
 20 21  2  0  0  0  0
 20 24  1  0  0  0  0
 21 22  1  0  0  0  0
 21 36  1  0  0  0  0
 22 23  2  0  0  0  0
 22 37  1  0  0  0  0
 23 24  1  0  0  0  0
 23 38  1  0  0  0  0
M  END
