
 OpenBabel10072619423D

 56 59  0  0  0  0  0  0  0  0999 V2000
    0.3568    1.3207    2.0179 C   0  0  0  0  0  0  0  0  0  0  0  0
    0.5345    0.3985    0.8494 C   0  0  0  0  0  0  0  0  0  0  0  0
    1.0715    0.8525   -0.3420 C   0  0  0  0  0  0  0  0  0  0  0  0
    1.1709   -0.0651   -1.3725 C   0  0  0  0  0  0  0  0  0  0  0  0
    0.7892   -1.3503   -1.2313 N   0  0  0  0  0  0  0  0  0  0  0  0
    0.3107   -1.6888   -0.0298 C   0  0  0  0  0  0  0  0  0  0  0  0
    0.1290   -0.8761    1.0142 N   0  0  0  0  0  0  0  0  0  0  0  0
   -0.0553   -3.0459    0.1116 N   0  0  0  0  0  0  0  0  0  0  0  0
   -1.4317   -3.2720    0.6375 C   0  0  0  0  0  0  0  0  0  0  0  0
   -2.4887   -2.7911   -0.3590 C   0  0  0  0  0  0  0  0  0  0  0  0
   -3.8587   -2.9980    0.1620 C   0  0  0  0  0  0  0  0  0  0  0  0
   -4.5605   -4.1276   -0.0092 N   0  0  0  0  0  0  0  0  0  0  0  0
   -5.7075   -3.7773    0.5993 N   0  0  0  0  0  0  0  0  0  0  0  0
   -5.7333   -2.5466    1.1282 N   0  0  0  0  0  0  0  0  0  0  0  0
   -4.5441   -2.0321    0.8479 N   0  0  0  0  0  0  0  0  0  0  0  0
    1.1781   -3.8723    0.9358 S   0  0  0  0  0  0  0  0  0  0  0  0
    2.4764   -3.5632    0.3731 O   0  0  0  0  0  0  0  0  0  0  0  0
    0.9318   -3.7720    2.3612 O   0  0  0  0  0  0  0  0  0  0  0  0
    0.8631   -5.5653    0.4674 C   0  0  0  0  0  0  0  0  0  0  0  0
    0.8282   -5.8938   -0.8911 C   0  0  0  0  0  0  0  0  0  0  0  0
    0.5811   -7.2145   -1.2721 C   0  0  0  0  0  0  0  0  0  0  0  0
    0.3907   -8.2083   -0.3067 C   0  0  0  0  0  0  0  0  0  0  0  0
    0.4144   -7.8606    1.0484 C   0  0  0  0  0  0  0  0  0  0  0  0
    0.6598   -6.5419    1.4438 C   0  0  0  0  0  0  0  0  0  0  0  0
    0.1487   -9.5378   -0.6828 N   0  0  0  0  0  0  0  0  0  0  0  0
    1.1828  -10.2126   -1.0817 C   0  0  0  0  0  0  0  0  0  0  0  0
    1.0868  -11.6250   -1.5031 C   0  0  0  0  0  0  0  0  0  0  0  0
   -0.1340  -12.3066   -1.4553 C   0  0  0  0  0  0  0  0  0  0  0  0
   -0.1978  -13.6490   -1.8357 C   0  0  0  0  0  0  0  0  0  0  0  0
    0.9582  -14.2944   -2.2633 C   0  0  0  0  0  0  0  0  0  0  0  0
    2.1718  -13.6187   -2.3333 C   0  0  0  0  0  0  0  0  0  0  0  0
    2.2413  -12.2790   -1.9459 C   0  0  0  0  0  0  0  0  0  0  0  0
    0.9447  -15.6094   -2.6207 O   0  0  0  0  0  0  0  0  0  0  0  0
    1.7840    0.3222   -2.6855 C   0  0  0  0  0  0  0  0  0  0  0  0
    1.0976    2.1266    2.0047 H   0  0  0  0  0  0  0  0  0  0  0  0
    0.4819    0.7730    2.9582 H   0  0  0  0  0  0  0  0  0  0  0  0
   -0.6442    1.7624    2.0028 H   0  0  0  0  0  0  0  0  0  0  0  0
    1.4037    1.8771   -0.4599 H   0  0  0  0  0  0  0  0  0  0  0  0
   -1.5660   -2.7795    1.6083 H   0  0  0  0  0  0  0  0  0  0  0  0
   -1.5854   -4.3452    0.8050 H   0  0  0  0  0  0  0  0  0  0  0  0
   -2.3693   -3.3156   -1.3162 H   0  0  0  0  0  0  0  0  0  0  0  0
   -2.3582   -1.7240   -0.5757 H   0  0  0  0  0  0  0  0  0  0  0  0
   -6.5095   -4.3998    0.6520 H   0  0  0  0  0  0  0  0  0  0  0  0
    0.9942   -5.1317   -1.6487 H   0  0  0  0  0  0  0  0  0  0  0  0
    0.5412   -7.4714   -2.3270 H   0  0  0  0  0  0  0  0  0  0  0  0
    0.2460   -8.6304    1.7966 H   0  0  0  0  0  0  0  0  0  0  0  0
    0.6953   -6.2948    2.5023 H   0  0  0  0  0  0  0  0  0  0  0  0
    2.1912   -9.7581   -1.1173 H   0  0  0  0  0  0  0  0  0  0  0  0
   -1.0343  -11.7997   -1.1167 H   0  0  0  0  0  0  0  0  0  0  0  0
   -1.1493  -14.1694   -1.7917 H   0  0  0  0  0  0  0  0  0  0  0  0
    3.0606  -14.1396   -2.6779 H   0  0  0  0  0  0  0  0  0  0  0  0
    3.1969  -11.7638   -1.9888 H   0  0  0  0  0  0  0  0  0  0  0  0
    0.0736  -15.9795   -2.4012 H   0  0  0  0  0  0  0  0  0  0  0  0
    1.5807    1.3722   -2.9225 H   0  0  0  0  0  0  0  0  0  0  0  0
    1.3706   -0.2885   -3.4951 H   0  0  0  0  0  0  0  0  0  0  0  0
    2.8678    0.1694   -2.6517 H   0  0  0  0  0  0  0  0  0  0  0  0
  1  2  1  0  0  0  0
  1 35  1  0  0  0  0
  1 36  1  0  0  0  0
  1 37  1  0  0  0  0
  2  3  2  0  0  0  0
  2  7  1  0  0  0  0
  3  4  1  0  0  0  0
  3 38  1  0  0  0  0
  4  5  2  0  0  0  0
  4 34  1  0  0  0  0
  5  6  1  0  0  0  0
  6  7  2  0  0  0  0
  6  8  1  0  0  0  0
  8  9  1  0  0  0  0
  8 16  1  0  0  0  0
  9 10  1  0  0  0  0
  9 39  1  0  0  0  0
  9 40  1  0  0  0  0
 10 11  1  0  0  0  0
 10 41  1  0  0  0  0
 10 42  1  0  0  0  0
 11 12  2  0  0  0  0
 11 15  1  0  0  0  0
 12 13  1  0  0  0  0
 13 14  1  0  0  0  0
 13 43  1  0  0  0  0
 14 15  2  0  0  0  0
 16 17  2  0  0  0  0
 16 18  2  0  0  0  0
 16 19  1  0  0  0  0
 19 20  2  0  0  0  0
 19 24  1  0  0  0  0
 20 21  1  0  0  0  0
 20 44  1  0  0  0  0
 21 22  2  0  0  0  0
 21 45  1  0  0  0  0
 22 23  1  0  0  0  0
 22 25  1  0  0  0  0
 23 24  2  0  0  0  0
 23 46  1  0  0  0  0
 24 47  1  0  0  0  0
 25 26  2  3  0  0  0
 26 27  1  0  0  0  0
 26 48  1  0  0  0  0
 27 28  2  0  0  0  0
 27 32  1  0  0  0  0
 28 29  1  0  0  0  0
 28 49  1  0  0  0  0
 29 30  2  0  0  0  0
 29 50  1  0  0  0  0
 30 31  1  0  0  0  0
 30 33  1  0  0  0  0
 31 32  2  0  0  0  0
 31 51  1  0  0  0  0
 32 52  1  0  0  0  0
 33 53  1  0  0  0  0
 34 54  1  0  0  0  0
 34 55  1  0  0  0  0
 34 56  1  0  0  0  0
M  END
