
 OpenBabel10072620183D

 46 47  0  0  0  0  0  0  0  0999 V2000
    1.6102   -0.2352   -1.3989 C   0  0  0  0  0  0  0  0  0  0  0  0
    1.3016   -1.5514   -1.8333 O   0  0  0  0  0  0  0  0  0  0  0  0
    2.1171   -2.6418   -1.4301 C   0  0  0  0  0  0  0  0  0  0  0  0
    3.1746   -2.4619   -0.6474 C   0  0  0  0  0  0  0  0  0  0  0  0
    3.8289   -3.5378   -0.0977 C   0  0  0  0  0  0  0  0  0  0  0  0
    3.4666   -4.8177   -0.4139 C   0  0  0  0  0  0  0  0  0  0  0  0
    2.3678   -4.9564   -1.1332 C   0  0  0  0  0  0  0  0  0  0  0  0
    1.7347   -3.9079   -1.8416 C   0  0  0  0  0  0  0  0  0  0  0  0
    4.2576   -5.9771    0.0233 N   0  0  0  0  0  0  0  0  0  0  0  0
    5.1891   -5.8474    1.1531 C   0  0  0  0  0  0  0  0  0  0  0  0
    5.3117   -4.7326    1.7509 O   0  0  0  0  0  0  0  0  0  0  0  0
    6.0057   -7.0467    1.6063 C   0  0  0  0  0  0  0  0  0  0  0  0
    7.1322   -6.8621    2.3464 C   0  0  0  0  0  0  0  0  0  0  0  0
    7.5742   -5.4566    2.7200 C   0  0  0  0  0  0  0  0  0  0  0  0
    7.1182   -4.9440    3.8569 C   0  0  0  0  0  0  0  0  0  0  0  0
    7.6395   -3.7747    4.3557 C   0  0  0  0  0  0  0  0  0  0  0  0
    8.5721   -3.0641    3.6522 C   0  0  0  0  0  0  0  0  0  0  0  0
    9.0538   -3.6412    2.5664 C   0  0  0  0  0  0  0  0  0  0  0  0
    8.4705   -4.7601    1.9262 C   0  0  0  0  0  0  0  0  0  0  0  0
   10.5403   -2.9642    1.8590 Cl  0  0  0  0  0  0  0  0  0  0  0  0
    8.9997   -1.7751    4.0669 O   0  0  0  0  0  0  0  0  0  0  0  0
    9.4216   -0.8226    3.1020 C   0  0  0  0  0  0  0  0  0  0  0  0
    9.1183    0.5787    3.6070 C   0  0  0  0  0  0  0  0  0  0  0  0
    9.4147    1.5888    2.8949 O   0  0  0  0  0  0  0  0  0  0  0  0
    8.5039    0.7591    4.8744 O   0  0  0  0  0  0  0  0  0  0  0  0
    7.2035   -3.2973    5.6200 O   0  0  0  0  0  0  0  0  0  0  0  0
    6.7851   -4.2150    6.6196 C   0  0  0  0  0  0  0  0  0  0  0  0
    5.5637   -8.4521    1.2326 C   0  0  0  0  0  0  0  0  0  0  0  0
    5.1969   -9.6181    0.9226 N   0  0  0  0  0  0  0  0  0  0  0  0
    0.8922    0.4499   -1.7987 H   0  0  0  0  0  0  0  0  0  0  0  0
    2.5880    0.0331   -1.7406 H   0  0  0  0  0  0  0  0  0  0  0  0
    1.5830   -0.1969   -0.3299 H   0  0  0  0  0  0  0  0  0  0  0  0
    3.5080   -1.5054   -0.4502 H   0  0  0  0  0  0  0  0  0  0  0  0
    4.6050   -3.3776    0.5634 H   0  0  0  0  0  0  0  0  0  0  0  0
    1.9412   -5.8949   -1.1821 H   0  0  0  0  0  0  0  0  0  0  0  0
    1.0502   -4.0716   -2.5963 H   0  0  0  0  0  0  0  0  0  0  0  0
    4.1636   -6.8403   -0.4406 H   0  0  0  0  0  0  0  0  0  0  0  0
    7.6866   -7.6763    2.6541 H   0  0  0  0  0  0  0  0  0  0  0  0
    6.3653   -5.4283    4.3705 H   0  0  0  0  0  0  0  0  0  0  0  0
    8.6926   -5.0325    0.9559 H   0  0  0  0  0  0  0  0  0  0  0  0
    8.9004   -0.9910    2.1828 H   0  0  0  0  0  0  0  0  0  0  0  0
   10.4743   -0.9227    2.9386 H   0  0  0  0  0  0  0  0  0  0  0  0
    8.2854    0.0144    5.3994 H   0  0  0  0  0  0  0  0  0  0  0  0
    6.4940   -3.6775    7.4978 H   0  0  0  0  0  0  0  0  0  0  0  0
    7.5922   -4.8760    6.8572 H   0  0  0  0  0  0  0  0  0  0  0  0
    5.9539   -4.7828    6.2571 H   0  0  0  0  0  0  0  0  0  0  0  0
  1  2  1  0  0  0  0
  1 30  1  0  0  0  0
  1 31  1  0  0  0  0
  1 32  1  0  0  0  0
  2  3  1  0  0  0  0
  3  4  2  0  0  0  0
  3  8  1  0  0  0  0
  4  5  1  0  0  0  0
  4 33  1  0  0  0  0
  5  6  2  0  0  0  0
  5 34  1  0  0  0  0
  6  7  1  0  0  0  0
  6  9  1  0  0  0  0
  7  8  2  0  0  0  0
  7 35  1  0  0  0  0
  8 36  1  0  0  0  0
  9 10  1  0  0  0  0
  9 37  1  0  0  0  0
 10 11  2  0  0  0  0
 10 12  1  0  0  0  0
 12 13  2  0  0  0  0
 12 28  1  0  0  0  0
 13 14  1  0  0  0  0
 13 38  1  0  0  0  0
 14 15  2  0  0  0  0
 14 19  1  0  0  0  0
 15 16  1  0  0  0  0
 15 39  1  0  0  0  0
 16 17  2  0  0  0  0
 16 26  1  0  0  0  0
 17 18  1  0  0  0  0
 17 21  1  0  0  0  0
 18 19  2  0  0  0  0
 18 20  1  0  0  0  0
 19 40  1  0  0  0  0
 21 22  1  0  0  0  0
 22 23  1  0  0  0  0
 22 41  1  0  0  0  0
 22 42  1  0  0  0  0
 23 24  2  0  0  0  0
 23 25  1  0  0  0  0
 25 43  1  0  0  0  0
 26 27  1  0  0  0  0
 27 44  1  0  0  0  0
 27 45  1  0  0  0  0
 27 46  1  0  0  0  0
 28 29  3  0  0  0  0
M  END
