
 OpenBabel10072620013D

 48 50  0  0  0  0  0  0  0  0999 V2000
    2.5452   -0.5752   -0.8969 C   0  0  0  0  0  0  0  0  0  0  0  0
    3.7153    0.3790   -1.0537 C   0  0  0  0  0  0  0  0  0  0  0  0
    3.5372    1.5728   -0.1703 N   0  3  0  0  0  0  0  0  0  0  0  0
    4.1255    1.5847    1.0661 C   0  0  0  0  0  0  0  0  0  0  0  0
    4.0585    2.7201    1.8752 C   0  0  0  0  0  0  0  0  0  0  0  0
    3.3931    3.8486    1.4396 C   0  0  0  0  0  0  0  0  0  0  0  0
    2.7719    3.8341    0.1992 C   0  0  0  0  0  0  0  0  0  0  0  0
    2.0722    4.9711   -0.2302 C   0  0  0  0  0  0  0  0  0  0  0  0
    1.4161    4.9785   -1.4571 C   0  0  0  0  0  0  0  0  0  0  0  0
    1.4580    3.8524   -2.2679 C   0  0  0  0  0  0  0  0  0  0  0  0
    2.1601    2.7131   -1.8558 C   0  0  0  0  0  0  0  0  0  0  0  0
    2.8377    2.6720   -0.6201 C   0  0  0  0  0  0  0  0  0  0  0  0
    4.7684    0.3799    1.6073 C   0  0  0  0  0  0  0  0  0  0  0  0
    6.0164    0.3514    2.1019 C   0  0  0  0  0  0  0  0  0  0  0  0
    6.5960   -0.8859    2.6399 C   0  0  0  0  0  0  0  0  0  0  0  0
    7.1909   -0.8732    3.9140 C   0  0  0  0  0  0  0  0  0  0  0  0
    7.7376   -2.0418    4.4521 C   0  0  0  0  0  0  0  0  0  0  0  0
    7.7056   -3.2088    3.6790 C   0  0  0  0  0  0  0  0  0  0  0  0
    7.1232   -3.2393    2.4128 C   0  0  0  0  0  0  0  0  0  0  0  0
    6.5769   -2.0715    1.8904 C   0  0  0  0  0  0  0  0  0  0  0  0
    8.2178   -4.3968    4.2070 O   0  0  0  0  0  0  0  0  0  0  0  0
    9.4976   -4.6671    3.7434 C   0  0  0  0  0  0  0  0  0  0  0  0
   10.1454   -4.0086    2.9393 O   0  0  0  0  0  0  0  0  0  0  0  0
    9.9912   -5.9243    4.3937 C   0  0  0  0  0  0  0  0  0  0  0  0
    8.3110   -2.1621    5.6881 O   0  0  0  0  0  0  0  0  0  0  0  0
    8.3535   -1.0057    6.5122 C   0  0  0  0  0  0  0  0  0  0  0  0
    2.6789   -1.4455   -1.5471 H   0  0  0  0  0  0  0  0  0  0  0  0
    1.5948   -0.1004   -1.1562 H   0  0  0  0  0  0  0  0  0  0  0  0
    2.4579   -0.9361    0.1316 H   0  0  0  0  0  0  0  0  0  0  0  0
    3.8364    0.7172   -2.0867 H   0  0  0  0  0  0  0  0  0  0  0  0
    4.6593   -0.1172   -0.8101 H   0  0  0  0  0  0  0  0  0  0  0  0
    4.5106    2.7248    2.8658 H   0  0  0  0  0  0  0  0  0  0  0  0
    3.3452    4.7245    2.0860 H   0  0  0  0  0  0  0  0  0  0  0  0
    2.0194    5.8658    0.3911 H   0  0  0  0  0  0  0  0  0  0  0  0
    0.8667    5.8636   -1.7763 H   0  0  0  0  0  0  0  0  0  0  0  0
    0.9348    3.8584   -3.2238 H   0  0  0  0  0  0  0  0  0  0  0  0
    2.1321    1.8682   -2.5371 H   0  0  0  0  0  0  0  0  0  0  0  0
    4.1592   -0.5198    1.6191 H   0  0  0  0  0  0  0  0  0  0  0  0
    6.6541    1.2316    2.1484 H   0  0  0  0  0  0  0  0  0  0  0  0
    7.2089    0.0551    4.4764 H   0  0  0  0  0  0  0  0  0  0  0  0
    7.1141   -4.1591    1.8357 H   0  0  0  0  0  0  0  0  0  0  0  0
    6.1497   -2.1000    0.8922 H   0  0  0  0  0  0  0  0  0  0  0  0
   10.3393   -5.7039    5.4050 H   0  0  0  0  0  0  0  0  0  0  0  0
   10.8140   -6.3343    3.8016 H   0  0  0  0  0  0  0  0  0  0  0  0
    9.1933   -6.6718    4.4195 H   0  0  0  0  0  0  0  0  0  0  0  0
    8.8232   -1.2883    7.4593 H   0  0  0  0  0  0  0  0  0  0  0  0
    7.3450   -0.6432    6.7368 H   0  0  0  0  0  0  0  0  0  0  0  0
    8.9647   -0.2203    6.0564 H   0  0  0  0  0  0  0  0  0  0  0  0
  1  2  1  0  0  0  0
  1 27  1  0  0  0  0
  1 28  1  0  0  0  0
  1 29  1  0  0  0  0
  2  3  1  0  0  0  0
  2 30  1  0  0  0  0
  2 31  1  0  0  0  0
  3  4  2  0  0  0  0
  3 12  1  0  0  0  0
  4  5  1  0  0  0  0
  4 13  1  0  0  0  0
  5  6  2  0  0  0  0
  5 32  1  0  0  0  0
  6  7  1  0  0  0  0
  6 33  1  0  0  0  0
  7  8  2  0  0  0  0
  7 12  1  0  0  0  0
  8  9  1  0  0  0  0
  8 34  1  0  0  0  0
  9 10  2  0  0  0  0
  9 35  1  0  0  0  0
 10 11  1  0  0  0  0
 10 36  1  0  0  0  0
 11 12  2  0  0  0  0
 11 37  1  0  0  0  0
 13 14  2  0  0  0  0
 13 38  1  0  0  0  0
 14 15  1  0  0  0  0
 14 39  1  0  0  0  0
 15 16  2  0  0  0  0
 15 20  1  0  0  0  0
 16 17  1  0  0  0  0
 16 40  1  0  0  0  0
 17 18  2  0  0  0  0
 17 25  1  0  0  0  0
 18 19  1  0  0  0  0
 18 21  1  0  0  0  0
 19 20  2  0  0  0  0
 19 41  1  0  0  0  0
 20 42  1  0  0  0  0
 21 22  1  0  0  0  0
 22 23  2  0  0  0  0
 22 24  1  0  0  0  0
 24 43  1  0  0  0  0
 24 44  1  0  0  0  0
 24 45  1  0  0  0  0
 25 26  1  0  0  0  0
 26 46  1  0  0  0  0
 26 47  1  0  0  0  0
 26 48  1  0  0  0  0
M  CHG  1   3   1
M  END
