
 OpenBabel10072620033D

 22 22  0  0  0  0  0  0  0  0999 V2000
   -1.2383   -1.4117   -0.0211 C   0  0  0  0  0  0  0  0  0  0  0  0
   -0.0277   -2.1091   -0.0491 C   0  0  0  0  0  0  0  0  0  0  0  0
    1.2012   -1.4246   -0.0478 C   0  0  0  0  0  0  0  0  0  0  0  0
    1.1745   -0.0173   -0.0432 C   0  0  0  0  0  0  0  0  0  0  0  0
   -0.0361    0.6815   -0.0138 C   0  0  0  0  0  0  0  0  0  0  0  0
   -1.2365   -0.0206   -0.0000 C   0  0  0  0  0  0  0  0  0  0  0  0
   -2.7284    0.8349    0.0356 Cl  0  0  0  0  0  0  0  0  0  0  0  0
    2.6303    0.9151   -0.0822 Cl  0  0  0  0  0  0  0  0  0  0  0  0
    2.5173   -2.1733   -0.0837 C   0  0  0  0  0  0  0  0  0  0  0  0
    2.3298   -3.5783    0.1509 O   0  0  0  0  0  0  0  0  0  0  0  0
    3.6021   -4.1999    0.1502 N   0  0  0  0  0  0  0  0  0  0  0  0
    4.0342   -4.7465    1.3207 C   0  0  0  0  0  0  0  0  0  0  0  0
    4.9493   -5.5579    1.3764 O   0  0  0  0  0  0  0  0  0  0  0  0
    3.4052   -4.3012    2.4359 N   0  0  0  0  0  0  0  0  0  0  0  0
   -2.1764   -1.9615   -0.0180 H   0  0  0  0  0  0  0  0  0  0  0  0
   -0.0573   -3.1974   -0.0724 H   0  0  0  0  0  0  0  0  0  0  0  0
   -0.0416    1.7683   -0.0046 H   0  0  0  0  0  0  0  0  0  0  0  0
    3.1799   -1.7831    0.6977 H   0  0  0  0  0  0  0  0  0  0  0  0
    2.9792   -2.0401   -1.0694 H   0  0  0  0  0  0  0  0  0  0  0  0
    3.8550   -4.7137   -0.6865 H   0  0  0  0  0  0  0  0  0  0  0  0
    2.4495   -3.9993    2.3062 H   0  0  0  0  0  0  0  0  0  0  0  0
    3.6202   -4.8075    3.2836 H   0  0  0  0  0  0  0  0  0  0  0  0
  1  2  2  0  0  0  0
  1  6  1  0  0  0  0
  1 15  1  0  0  0  0
  2  3  1  0  0  0  0
  2 16  1  0  0  0  0
  3  4  2  0  0  0  0
  3  9  1  0  0  0  0
  4  5  1  0  0  0  0
  4  8  1  0  0  0  0
  5  6  2  0  0  0  0
  5 17  1  0  0  0  0
  6  7  1  0  0  0  0
  9 10  1  0  0  0  0
  9 18  1  0  0  0  0
  9 19  1  0  0  0  0
 10 11  1  0  0  0  0
 11 12  1  0  0  0  0
 11 20  1  0  0  0  0
 12 13  2  0  0  0  0
 12 14  1  0  0  0  0
 14 21  1  0  0  0  0
 14 22  1  0  0  0  0
M  END
