
 OpenBabel10072616323D

 51 53  0  0  0  0  0  0  0  0999 V2000
    6.8877    2.8552   -3.0254 C   0  0  0  0  0  0  0  0  0  0  0  0
    6.2444    1.9090   -2.0147 C   0  0  0  0  0  0  0  0  0  0  0  0
    6.5535    2.3714   -0.5924 C   0  0  0  0  0  0  0  0  0  0  0  0
    5.9969    1.5153    0.5164 C   0  0  0  0  0  0  0  0  0  0  0  0
    4.9151    1.9958    1.1686 N   0  0  0  0  0  0  0  0  0  0  0  0
    4.5225    1.4039    2.3080 C   0  0  0  0  0  0  0  0  0  0  0  0
    3.4182    1.9361    2.9717 C   0  0  0  0  0  0  0  0  0  0  0  0
    2.9438    1.3968    4.1756 C   0  0  0  0  0  0  0  0  0  0  0  0
    3.6062    0.3187    4.7475 C   0  0  0  0  0  0  0  0  0  0  0  0
    4.7312   -0.2158    4.1150 C   0  0  0  0  0  0  0  0  0  0  0  0
    5.1911    0.2902    2.8680 C   0  0  0  0  0  0  0  0  0  0  0  0
    6.2931   -0.2429    2.1374 C   0  0  0  0  0  0  0  0  0  0  0  0
    6.6809    0.3838    0.9436 C   0  0  0  0  0  0  0  0  0  0  0  0
    7.0422   -1.3406    2.6789 N   0  0  0  0  0  0  0  0  0  0  0  0
    8.1372   -1.8998    2.0508 C   0  0  0  0  0  0  0  0  0  0  0  0
    9.3550   -1.5148    1.9620 N   0  0  0  0  0  0  0  0  0  0  0  0
    9.9812   -0.4670    2.7725 C   0  0  0  0  0  0  0  0  0  0  0  0
    9.8131   -0.8278    4.2514 C   0  0  0  0  0  0  0  0  0  0  0  0
   11.4801   -0.5183    2.3984 C   0  0  0  0  0  0  0  0  0  0  0  0
    9.4759    0.9345    2.4948 C   0  0  0  0  0  0  0  0  0  0  0  0
    7.9393   -3.1634    1.5480 N   0  0  0  0  0  0  0  0  0  0  0  0
    7.3968   -4.1745    2.2655 C   0  0  0  0  0  0  0  0  0  0  0  0
    6.3712   -4.0561    3.0876 N   0  0  0  0  0  0  0  0  0  0  0  0
    6.1503   -5.2532    3.7345 C   0  0  0  0  0  0  0  0  0  0  0  0
    7.0056   -6.2816    3.4088 C   0  0  0  0  0  0  0  0  0  0  0  0
    8.1154   -5.7447    2.2245 S   0  0  0  0  0  0  0  0  0  0  0  0
    6.6802    2.5246   -4.0472 H   0  0  0  0  0  0  0  0  0  0  0  0
    7.9758    2.8938   -2.9000 H   0  0  0  0  0  0  0  0  0  0  0  0
    6.5020    3.8740   -2.9083 H   0  0  0  0  0  0  0  0  0  0  0  0
    6.6230    0.8943   -2.1806 H   0  0  0  0  0  0  0  0  0  0  0  0
    5.1610    1.8759   -2.1840 H   0  0  0  0  0  0  0  0  0  0  0  0
    6.1770    3.3947   -0.4594 H   0  0  0  0  0  0  0  0  0  0  0  0
    7.6387    2.4301   -0.4462 H   0  0  0  0  0  0  0  0  0  0  0  0
    2.9188    2.7948    2.5288 H   0  0  0  0  0  0  0  0  0  0  0  0
    2.0727    1.8163    4.6726 H   0  0  0  0  0  0  0  0  0  0  0  0
    3.2422   -0.0970    5.6852 H   0  0  0  0  0  0  0  0  0  0  0  0
    5.2601   -1.0314    4.6081 H   0  0  0  0  0  0  0  0  0  0  0  0
    7.5514    0.0497    0.3897 H   0  0  0  0  0  0  0  0  0  0  0  0
    6.3732   -2.0585    2.9658 H   0  0  0  0  0  0  0  0  0  0  0  0
   10.1600   -1.8495    4.4392 H   0  0  0  0  0  0  0  0  0  0  0  0
    8.7623   -0.7858    4.5568 H   0  0  0  0  0  0  0  0  0  0  0  0
   10.3656   -0.1419    4.9004 H   0  0  0  0  0  0  0  0  0  0  0  0
   11.9088   -1.4990    2.6319 H   0  0  0  0  0  0  0  0  0  0  0  0
   12.0584    0.2358    2.9434 H   0  0  0  0  0  0  0  0  0  0  0  0
   11.6404   -0.3448    1.3257 H   0  0  0  0  0  0  0  0  0  0  0  0
    8.4932    1.1201    2.9363 H   0  0  0  0  0  0  0  0  0  0  0  0
    9.4286    1.1234    1.4207 H   0  0  0  0  0  0  0  0  0  0  0  0
   10.1513    1.6727    2.9416 H   0  0  0  0  0  0  0  0  0  0  0  0
    8.8115   -3.4444    1.1043 H   0  0  0  0  0  0  0  0  0  0  0  0
    5.3417   -5.3314    4.4481 H   0  0  0  0  0  0  0  0  0  0  0  0
    7.0120   -7.2891    3.7983 H   0  0  0  0  0  0  0  0  0  0  0  0
  1  2  1  0  0  0  0
  1 27  1  0  0  0  0
  1 28  1  0  0  0  0
  1 29  1  0  0  0  0
  2  3  1  0  0  0  0
  2 30  1  0  0  0  0
  2 31  1  0  0  0  0
  3  4  1  0  0  0  0
  3 32  1  0  0  0  0
  3 33  1  0  0  0  0
  4  5  2  0  0  0  0
  4 13  1  0  0  0  0
  5  6  1  0  0  0  0
  6  7  2  0  0  0  0
  6 11  1  0  0  0  0
  7  8  1  0  0  0  0
  7 34  1  0  0  0  0
  8  9  2  0  0  0  0
  8 35  1  0  0  0  0
  9 10  1  0  0  0  0
  9 36  1  0  0  0  0
 10 11  2  0  0  0  0
 10 37  1  0  0  0  0
 11 12  1  0  0  0  0
 12 13  2  0  0  0  0
 12 14  1  0  0  0  0
 13 38  1  0  0  0  0
 14 15  1  0  0  0  0
 14 39  1  0  0  0  0
 15 16  2  3  0  0  0
 15 21  1  0  0  0  0
 16 17  1  0  0  0  0
 17 18  1  0  0  0  0
 17 19  1  0  0  0  0
 17 20  1  0  0  0  0
 18 40  1  0  0  0  0
 18 41  1  0  0  0  0
 18 42  1  0  0  0  0
 19 43  1  0  0  0  0
 19 44  1  0  0  0  0
 19 45  1  0  0  0  0
 20 46  1  0  0  0  0
 20 47  1  0  0  0  0
 20 48  1  0  0  0  0
 21 22  1  0  0  0  0
 21 49  1  0  0  0  0
 22 23  2  0  0  0  0
 22 26  1  0  0  0  0
 23 24  1  0  0  0  0
 24 25  2  0  0  0  0
 24 50  1  0  0  0  0
 25 26  1  0  0  0  0
 25 51  1  0  0  0  0
M  END
