
 OpenBabel10072620183D

 59 63  0  0  1  0  0  0  0  0999 V2000
    4.2045    0.6917   -1.5343 C   0  0  0  0  0  0  0  0  0  0  0  0
    4.5485    1.2071   -0.1442 C   0  0  3  0  0  0  0  0  0  0  0  0
    5.8663    0.6382    0.4059 C   0  0  0  0  0  0  0  0  0  0  0  0
    5.3386   -0.3586    1.3650 C   0  0  0  0  0  0  0  0  0  0  0  0
    3.9862   -0.1324    1.5503 C   0  0  0  0  0  0  0  0  0  0  0  0
    3.4653    0.8518    0.7514 O   0  0  0  0  0  0  0  0  0  0  0  0
    3.2619   -0.8126    2.5030 C   0  0  0  0  0  0  0  0  0  0  0  0
    3.9428   -1.7362    3.3042 C   0  0  0  0  0  0  0  0  0  0  0  0
    5.3123   -2.0375    3.1075 C   0  0  0  0  0  0  0  0  0  0  0  0
    6.0154   -1.3081    2.1255 C   0  0  0  0  0  0  0  0  0  0  0  0
    6.0297   -2.9845    4.0433 C   0  0  0  0  0  0  0  0  0  0  0  0
    5.4241   -4.1758    4.2960 C   0  0  0  0  0  0  0  0  0  0  0  0
    5.9173   -5.1390    5.3643 C   0  0  3  0  0  0  0  0  0  0  0  0
    5.2411   -6.4055    5.0904 N   0  0  0  0  0  0  0  0  0  0  0  0
    4.2493   -6.2840    4.1559 C   0  0  0  0  0  0  0  0  0  0  0  0
    3.5071   -7.1708    3.7749 O   0  0  0  0  0  0  0  0  0  0  0  0
    4.3032   -4.8691    3.5950 C   0  0  0  0  0  0  0  0  0  0  0  0
    3.5875   -4.5314    2.6766 O   0  0  0  0  0  0  0  0  0  0  0  0
    5.5253   -7.6268    5.8157 C   0  0  0  0  0  0  0  0  0  0  0  0
    6.3165   -8.6011    4.9746 C   0  0  0  0  0  0  0  0  0  0  0  0
    5.6943   -9.3327    3.9622 C   0  0  0  0  0  0  0  0  0  0  0  0
    6.4095  -10.1587    3.1831 N   0  3  0  0  0  0  0  0  0  0  0  0
    7.7288  -10.3357    3.3405 C   0  0  0  0  0  0  0  0  0  0  0  0
    8.4039   -9.6461    4.3401 C   0  0  0  0  0  0  0  0  0  0  0  0
    7.6918   -8.7683    5.1552 C   0  0  0  0  0  0  0  0  0  0  0  0
    5.6135   -4.6849    6.7926 C   0  0  0  0  0  0  0  0  0  0  0  0
    6.6661   -4.2445    7.6153 C   0  0  0  0  0  0  0  0  0  0  0  0
    6.4319   -3.9150    8.9501 C   0  0  0  0  0  0  0  0  0  0  0  0
    5.1378   -4.0222    9.4745 C   0  0  0  0  0  0  0  0  0  0  0  0
    4.0717   -4.3977    8.6603 C   0  0  0  0  0  0  0  0  0  0  0  0
    4.3074   -4.7126    7.3207 C   0  0  0  0  0  0  0  0  0  0  0  0
    2.3010   -4.5261    9.3271 Br  0  0  0  0  0  0  0  0  0  0  0  0
    4.9420   -3.7396   10.8019 O   0  0  0  0  0  0  0  0  0  0  0  0
    7.4213   -3.5427    9.8300 O   0  0  0  0  0  0  0  0  0  0  0  0
    8.3391   -2.5935    9.2813 C   0  0  0  0  0  0  0  0  0  0  0  0
    7.1184   -2.6109    4.5724 O   0  5  0  0  0  0  0  0  0  0  0  0
    4.8990    1.0795   -2.2826 H   0  0  0  0  0  0  0  0  0  0  0  0
    3.1886    0.9921   -1.8063 H   0  0  0  0  0  0  0  0  0  0  0  0
    4.2316   -0.4007   -1.5700 H   0  0  0  0  0  0  0  0  0  0  0  0
    4.6001    2.3015   -0.1848 H   0  0  0  0  0  0  0  0  0  0  0  0
    6.4121    1.4150    0.9532 H   0  0  0  0  0  0  0  0  0  0  0  0
    6.5142    0.2040   -0.3582 H   0  0  0  0  0  0  0  0  0  0  0  0
    2.2082   -0.6166    2.6595 H   0  0  0  0  0  0  0  0  0  0  0  0
    3.4011   -2.2219    4.1106 H   0  0  0  0  0  0  0  0  0  0  0  0
    7.0878   -1.4458    2.0188 H   0  0  0  0  0  0  0  0  0  0  0  0
    6.9872   -5.3486    5.2411 H   0  0  0  0  0  0  0  0  0  0  0  0
    4.5777   -8.1031    6.1019 H   0  0  0  0  0  0  0  0  0  0  0  0
    6.0663   -7.4032    6.7433 H   0  0  0  0  0  0  0  0  0  0  0  0
    4.6360   -9.2635    3.7381 H   0  0  0  0  0  0  0  0  0  0  0  0
    5.9227  -10.6492    2.4291 H   0  0  0  0  0  0  0  0  0  0  0  0
    8.2199  -11.0160    2.6538 H   0  0  0  0  0  0  0  0  0  0  0  0
    9.4782   -9.7697    4.4641 H   0  0  0  0  0  0  0  0  0  0  0  0
    8.2240   -8.2013    5.9197 H   0  0  0  0  0  0  0  0  0  0  0  0
    7.6664   -4.1698    7.1954 H   0  0  0  0  0  0  0  0  0  0  0  0
    3.4711   -4.9928    6.6870 H   0  0  0  0  0  0  0  0  0  0  0  0
    5.8222   -3.4821   11.1377 H   0  0  0  0  0  0  0  0  0  0  0  0
    8.9729   -2.2356   10.0988 H   0  0  0  0  0  0  0  0  0  0  0  0
    7.8145   -1.7314    8.8539 H   0  0  0  0  0  0  0  0  0  0  0  0
    8.9959   -3.0638    8.5462 H   0  0  0  0  0  0  0  0  0  0  0  0
  1  2  1  0  0  0  0
  1 37  1  0  0  0  0
  1 38  1  0  0  0  0
  1 39  1  0  0  0  0
  2  3  1  0  0  0  0
  2  6  1  0  0  0  0
  2 40  1  0  0  0  0
  3  4  1  0  0  0  0
  3 41  1  0  0  0  0
  3 42  1  0  0  0  0
  4  5  2  0  0  0  0
  4 10  1  0  0  0  0
  5  6  1  0  0  0  0
  5  7  1  0  0  0  0
  7  8  2  0  0  0  0
  7 43  1  0  0  0  0
  8  9  1  0  0  0  0
  8 44  1  0  0  0  0
  9 10  2  0  0  0  0
  9 11  1  0  0  0  0
 10 45  1  0  0  0  0
 11 12  2  0  0  0  0
 11 36  1  0  0  0  0
 12 13  1  0  0  0  0
 12 17  1  0  0  0  0
 13 14  1  0  0  0  0
 13 26  1  0  0  0  0
 13 46  1  0  0  0  0
 14 15  1  0  0  0  0
 14 19  1  0  0  0  0
 15 16  2  0  0  0  0
 15 17  1  0  0  0  0
 17 18  2  0  0  0  0
 19 20  1  0  0  0  0
 19 47  1  0  0  0  0
 19 48  1  0  0  0  0
 20 21  2  0  0  0  0
 20 25  1  0  0  0  0
 21 22  1  0  0  0  0
 21 49  1  0  0  0  0
 22 23  2  0  0  0  0
 22 50  1  0  0  0  0
 23 24  1  0  0  0  0
 23 51  1  0  0  0  0
 24 25  2  0  0  0  0
 24 52  1  0  0  0  0
 25 53  1  0  0  0  0
 26 27  2  0  0  0  0
 26 31  1  0  0  0  0
 27 28  1  0  0  0  0
 27 54  1  0  0  0  0
 28 29  2  0  0  0  0
 28 34  1  0  0  0  0
 29 30  1  0  0  0  0
 29 33  1  0  0  0  0
 30 31  2  0  0  0  0
 30 32  1  0  0  0  0
 31 55  1  0  0  0  0
 33 56  1  0  0  0  0
 34 35  1  0  0  0  0
 35 57  1  0  0  0  0
 35 58  1  0  0  0  0
 35 59  1  0  0  0  0
M  CHG  2  22   1  36  -1
M  END
