
 OpenBabel10072620163D

 44 46  0  0  1  0  0  0  0  0999 V2000
    1.0682   -0.0824   -1.1627 C   0  0  0  0  0  0  0  0  0  0  0  0
    0.0992    0.1548   -2.1358 C   0  0  0  0  0  0  0  0  0  0  0  0
   -1.2416    0.2871   -1.7706 C   0  0  0  0  0  0  0  0  0  0  0  0
   -1.6239    0.1908   -0.4246 C   0  0  0  0  0  0  0  0  0  0  0  0
   -0.6413   -0.0593    0.5442 C   0  0  0  0  0  0  0  0  0  0  0  0
    0.6982   -0.1911    0.1763 C   0  0  0  0  0  0  0  0  0  0  0  0
   -3.0760    0.3011   -0.0266 C   0  0  0  0  0  0  0  0  0  0  0  0
   -3.7231   -0.9901   -0.0429 N   0  0  0  0  0  0  0  0  0  0  0  0
   -4.3334   -1.5450   -1.1298 C   0  0  0  0  0  0  0  0  0  0  0  0
   -4.5235   -0.9995   -2.2117 O   0  0  0  0  0  0  0  0  0  0  0  0
   -4.8016   -2.9673   -0.7690 C   0  0  3  0  0  0  0  0  0  0  0  0
   -4.4993   -2.9538    0.6400 N   0  0  0  0  0  0  0  0  0  0  0  0
   -3.7811   -1.8435    1.0099 C   0  0  0  0  0  0  0  0  0  0  0  0
   -3.2973   -1.6957    2.1188 O   0  0  0  0  0  0  0  0  0  0  0  0
   -3.9186   -3.8966   -1.6515 C   0  0  0  0  0  0  0  0  0  0  0  0
   -2.6768   -3.3859   -1.8440 F   0  0  0  0  0  0  0  0  0  0  0  0
   -3.7292   -5.1053   -1.0692 F   0  0  0  0  0  0  0  0  0  0  0  0
   -4.4631   -4.1009   -2.8729 F   0  0  0  0  0  0  0  0  0  0  0  0
   -6.2572   -2.9434   -1.0257 N   0  0  0  0  0  0  0  0  0  0  0  0
   -7.1589   -4.3178   -0.7799 S   0  0  0  0  0  0  0  0  0  0  0  0
   -8.3353   -4.1776   -1.6052 O   0  0  0  0  0  0  0  0  0  0  0  0
   -6.2758   -5.4523   -0.8831 O   0  0  0  0  0  0  0  0  0  0  0  0
   -7.6625   -4.1377    0.9085 C   0  0  0  0  0  0  0  0  0  0  0  0
   -8.5413   -3.1096    1.2544 C   0  0  0  0  0  0  0  0  0  0  0  0
   -8.9525   -2.9766    2.5831 C   0  0  0  0  0  0  0  0  0  0  0  0
   -8.4636   -3.8348    3.5739 C   0  0  0  0  0  0  0  0  0  0  0  0
   -7.6356   -4.8976    3.1964 C   0  0  0  0  0  0  0  0  0  0  0  0
   -7.2174   -5.0449    1.8712 C   0  0  0  0  0  0  0  0  0  0  0  0
   -8.9848   -3.7780    4.8706 N   0  0  0  0  0  0  0  0  0  0  0  0
    2.1120   -0.1849   -1.4482 H   0  0  0  0  0  0  0  0  0  0  0  0
    0.3880    0.2327   -3.1811 H   0  0  0  0  0  0  0  0  0  0  0  0
   -1.9865    0.4619   -2.5452 H   0  0  0  0  0  0  0  0  0  0  0  0
   -0.9150   -0.1590    1.5935 H   0  0  0  0  0  0  0  0  0  0  0  0
    1.4528   -0.3832    0.9349 H   0  0  0  0  0  0  0  0  0  0  0  0
   -3.5990    0.9755   -0.7150 H   0  0  0  0  0  0  0  0  0  0  0  0
   -3.1557    0.7334    0.9779 H   0  0  0  0  0  0  0  0  0  0  0  0
   -4.5350   -3.7632    1.2463 H   0  0  0  0  0  0  0  0  0  0  0  0
   -6.5392   -2.4532   -1.8809 H   0  0  0  0  0  0  0  0  0  0  0  0
   -8.9260   -2.4278    0.4997 H   0  0  0  0  0  0  0  0  0  0  0  0
   -9.6668   -2.1980    2.8403 H   0  0  0  0  0  0  0  0  0  0  0  0
   -7.3161   -5.6288    3.9353 H   0  0  0  0  0  0  0  0  0  0  0  0
   -6.5729   -5.8787    1.6027 H   0  0  0  0  0  0  0  0  0  0  0  0
   -9.3145   -2.8581    5.1462 H   0  0  0  0  0  0  0  0  0  0  0  0
   -8.3897   -4.1993    5.5774 H   0  0  0  0  0  0  0  0  0  0  0  0
  1  2  2  0  0  0  0
  1  6  1  0  0  0  0
  1 30  1  0  0  0  0
  2  3  1  0  0  0  0
  2 31  1  0  0  0  0
  3  4  2  0  0  0  0
  3 32  1  0  0  0  0
  4  5  1  0  0  0  0
  4  7  1  0  0  0  0
  5  6  2  0  0  0  0
  5 33  1  0  0  0  0
  6 34  1  0  0  0  0
  7  8  1  0  0  0  0
  7 35  1  0  0  0  0
  7 36  1  0  0  0  0
  8  9  1  0  0  0  0
  8 13  1  0  0  0  0
  9 10  2  0  0  0  0
  9 11  1  0  0  0  0
 11 12  1  0  0  0  0
 11 15  1  0  0  0  0
 11 19  1  0  0  0  0
 12 13  1  0  0  0  0
 12 37  1  0  0  0  0
 13 14  2  0  0  0  0
 15 16  1  0  0  0  0
 15 17  1  0  0  0  0
 15 18  1  0  0  0  0
 19 20  1  0  0  0  0
 19 38  1  0  0  0  0
 20 21  2  0  0  0  0
 20 22  2  0  0  0  0
 20 23  1  0  0  0  0
 23 24  2  0  0  0  0
 23 28  1  0  0  0  0
 24 25  1  0  0  0  0
 24 39  1  0  0  0  0
 25 26  2  0  0  0  0
 25 40  1  0  0  0  0
 26 27  1  0  0  0  0
 26 29  1  0  0  0  0
 27 28  2  0  0  0  0
 27 41  1  0  0  0  0
 28 42  1  0  0  0  0
 29 43  1  0  0  0  0
 29 44  1  0  0  0  0
M  END
