
 OpenBabel10072619503D

 44 47  0  0  1  0  0  0  0  0999 V2000
    7.4405    3.8928    5.5005 C   0  0  0  0  0  0  0  0  0  0  0  0
    7.6746    2.8797    4.3910 C   0  0  0  0  0  0  0  0  0  0  0  0
    6.9331    3.4884    2.8444 S   0  0  0  0  0  0  0  0  0  0  0  0
    7.6125    2.3598    1.6945 C   0  0  0  0  0  0  0  0  0  0  0  0
    8.0746    1.1768    2.0383 N   0  0  0  0  0  0  0  0  0  0  0  0
    8.5754    0.4864    0.9499 N   0  0  0  0  0  0  0  0  0  0  0  0
    8.5062    1.1956   -0.1563 C   0  0  0  0  0  0  0  0  0  0  0  0
    7.7402    2.7053    0.0216 S   0  0  0  0  0  0  0  0  0  0  0  0
    8.9716    0.7197   -1.3554 N   0  0  0  0  0  0  0  0  0  0  0  0
    9.2138    1.4587   -2.4874 C   0  0  0  0  0  0  0  0  0  0  0  0
    9.0745    2.6647   -2.6161 O   0  0  0  0  0  0  0  0  0  0  0  0
    9.6866    0.6380   -3.4934 N   0  0  0  0  0  0  0  0  0  0  0  0
   10.1162    1.1014   -4.8181 C   0  0  3  0  0  0  0  0  0  0  0  0
   11.2887    2.1123   -4.7267 C   0  0  0  0  0  0  0  0  0  0  0  0
   11.7581    2.5240   -6.1336 C   0  0  3  0  0  0  0  0  0  0  0  0
   10.5793    3.1620   -6.8869 C   0  0  0  0  0  0  0  0  0  0  0  0
    9.4247    2.1544   -7.0176 C   0  0  3  0  0  0  0  0  0  0  0  0
    8.9536    1.7413   -5.6116 C   0  0  0  0  0  0  0  0  0  0  0  0
    9.9245    0.9158   -7.7786 C   0  0  0  0  0  0  0  0  0  0  0  0
   11.0908    0.2660   -7.0184 C   0  0  3  0  0  0  0  0  0  0  0  0
   12.2390    1.2785   -6.8947 C   0  0  0  0  0  0  0  0  0  0  0  0
   10.6177   -0.1342   -5.6129 C   0  0  0  0  0  0  0  0  0  0  0  0
    7.8513    3.5193    6.4445 H   0  0  0  0  0  0  0  0  0  0  0  0
    6.3735    4.0836    5.6545 H   0  0  0  0  0  0  0  0  0  0  0  0
    7.9344    4.8459    5.2799 H   0  0  0  0  0  0  0  0  0  0  0  0
    7.2245    1.9186    4.6622 H   0  0  0  0  0  0  0  0  0  0  0  0
    8.7523    2.7333    4.2619 H   0  0  0  0  0  0  0  0  0  0  0  0
    9.4088   -0.1848   -1.2873 H   0  0  0  0  0  0  0  0  0  0  0  0
    9.3220   -0.3024   -3.4588 H   0  0  0  0  0  0  0  0  0  0  0  0
   12.1295    1.6752   -4.1730 H   0  0  0  0  0  0  0  0  0  0  0  0
   10.9908    3.0095   -4.1718 H   0  0  0  0  0  0  0  0  0  0  0  0
   12.5815    3.2427   -6.0574 H   0  0  0  0  0  0  0  0  0  0  0  0
   10.9036    3.4861   -7.8826 H   0  0  0  0  0  0  0  0  0  0  0  0
   10.2372    4.0578   -6.3548 H   0  0  0  0  0  0  0  0  0  0  0  0
    8.5928    2.6094   -7.5668 H   0  0  0  0  0  0  0  0  0  0  0  0
    8.1163    1.0359   -5.6876 H   0  0  0  0  0  0  0  0  0  0  0  0
    8.5664    2.6220   -5.0862 H   0  0  0  0  0  0  0  0  0  0  0  0
   10.2521    1.2041   -8.7852 H   0  0  0  0  0  0  0  0  0  0  0  0
    9.1066    0.1958   -7.9027 H   0  0  0  0  0  0  0  0  0  0  0  0
   11.4362   -0.6220   -7.5595 H   0  0  0  0  0  0  0  0  0  0  0  0
   12.6005    1.5595   -7.8919 H   0  0  0  0  0  0  0  0  0  0  0  0
   13.0863    0.8231   -6.3680 H   0  0  0  0  0  0  0  0  0  0  0  0
   11.4383   -0.6231   -5.0705 H   0  0  0  0  0  0  0  0  0  0  0  0
    9.8147   -0.8797   -5.6937 H   0  0  0  0  0  0  0  0  0  0  0  0
  1  2  1  0  0  0  0
  1 23  1  0  0  0  0
  1 24  1  0  0  0  0
  1 25  1  0  0  0  0
  2  3  1  0  0  0  0
  2 26  1  0  0  0  0
  2 27  1  0  0  0  0
  3  4  1  0  0  0  0
  4  5  2  0  0  0  0
  4  8  1  0  0  0  0
  5  6  1  0  0  0  0
  6  7  2  0  0  0  0
  7  8  1  0  0  0  0
  7  9  1  0  0  0  0
  9 10  1  0  0  0  0
  9 28  1  0  0  0  0
 10 11  2  0  0  0  0
 10 12  1  0  0  0  0
 12 13  1  0  0  0  0
 12 29  1  0  0  0  0
 13 14  1  0  0  0  0
 13 18  1  0  0  0  0
 13 22  1  0  0  0  0
 14 15  1  0  0  0  0
 14 30  1  0  0  0  0
 14 31  1  0  0  0  0
 15 16  1  0  0  0  0
 15 21  1  0  0  0  0
 15 32  1  0  0  0  0
 16 17  1  0  0  0  0
 16 33  1  0  0  0  0
 16 34  1  0  0  0  0
 17 18  1  0  0  0  0
 17 19  1  0  0  0  0
 17 35  1  0  0  0  0
 18 36  1  0  0  0  0
 18 37  1  0  0  0  0
 19 20  1  0  0  0  0
 19 38  1  0  0  0  0
 19 39  1  0  0  0  0
 20 21  1  0  0  0  0
 20 22  1  0  0  0  0
 20 40  1  0  0  0  0
 21 41  1  0  0  0  0
 21 42  1  0  0  0  0
 22 43  1  0  0  0  0
 22 44  1  0  0  0  0
M  END
