
 OpenBabel10072616323D

 57 59  0  0  0  0  0  0  0  0999 V2000
   15.8185    3.6123   -2.3206 C   0  0  0  0  0  0  0  0  0  0  0  0
   15.1472    3.3654   -0.9794 C   0  0  0  0  0  0  0  0  0  0  0  0
   13.6252    3.4343   -1.1010 C   0  0  0  0  0  0  0  0  0  0  0  0
   12.9485    3.2336    0.2555 C   0  0  0  0  0  0  0  0  0  0  0  0
   11.4318    3.4023    0.1475 C   0  0  0  0  0  0  0  0  0  0  0  0
   10.7595    3.2459    1.5128 C   0  0  0  0  0  0  0  0  0  0  0  0
    9.2591    3.5366    1.4293 C   0  0  0  0  0  0  0  0  0  0  0  0
    8.5401    3.4048    2.7761 C   0  0  0  0  0  0  0  0  0  0  0  0
    9.0293    4.3121    3.8003 N   0  0  0  0  0  0  0  0  0  0  0  0
    8.7905    5.6744    3.7988 C   0  0  0  0  0  0  0  0  0  0  0  0
    8.0428    6.5200    2.9670 C   0  0  0  0  0  0  0  0  0  0  0  0
    8.0498    7.8873    3.2687 C   0  0  0  0  0  0  0  0  0  0  0  0
    8.7725    8.3856    4.3528 C   0  0  0  0  0  0  0  0  0  0  0  0
    9.5154    7.5253    5.1691 C   0  0  0  0  0  0  0  0  0  0  0  0
    9.5168    6.1521    4.8818 C   0  0  0  0  0  0  0  0  0  0  0  0
   10.1511    5.1305    5.5327 N   0  0  0  0  0  0  0  0  0  0  0  0
    9.8236    4.0187    4.8977 C   0  0  0  0  0  0  0  0  0  0  0  0
   10.1978    2.6854    5.2224 C   0  0  0  0  0  0  0  0  0  0  0  0
   11.1924    2.4706    6.0997 C   0  0  0  0  0  0  0  0  0  0  0  0
   11.6681    1.1559    6.5608 C   0  0  0  0  0  0  0  0  0  0  0  0
   11.4430   -0.0386    5.8675 C   0  0  0  0  0  0  0  0  0  0  0  0
   11.9379   -1.2514    6.3609 C   0  0  0  0  0  0  0  0  0  0  0  0
   12.6765   -1.2948    7.5447 C   0  0  0  0  0  0  0  0  0  0  0  0
   12.9236   -0.1085    8.2307 C   0  0  0  0  0  0  0  0  0  0  0  0
   12.4234    1.1044    7.7408 C   0  0  0  0  0  0  0  0  0  0  0  0
   13.0958   -2.5420    7.9148 O   0  0  0  0  0  0  0  0  0  0  0  0
   13.8092   -2.6429    9.1409 C   0  0  0  0  0  0  0  0  0  0  0  0
   16.9068    3.5741   -2.2145 H   0  0  0  0  0  0  0  0  0  0  0  0
   15.5518    4.5973   -2.7169 H   0  0  0  0  0  0  0  0  0  0  0  0
   15.5196    2.8556   -3.0527 H   0  0  0  0  0  0  0  0  0  0  0  0
   15.4983    4.1142   -0.2595 H   0  0  0  0  0  0  0  0  0  0  0  0
   15.4489    2.3825   -0.5990 H   0  0  0  0  0  0  0  0  0  0  0  0
   13.2765    2.6673   -1.8036 H   0  0  0  0  0  0  0  0  0  0  0  0
   13.3360    4.4081   -1.5158 H   0  0  0  0  0  0  0  0  0  0  0  0
   13.3459    3.9627    0.9728 H   0  0  0  0  0  0  0  0  0  0  0  0
   13.1848    2.2349    0.6430 H   0  0  0  0  0  0  0  0  0  0  0  0
   11.0232    2.6654   -0.5545 H   0  0  0  0  0  0  0  0  0  0  0  0
   11.2061    4.3959   -0.2592 H   0  0  0  0  0  0  0  0  0  0  0  0
   11.2327    3.9358    2.2203 H   0  0  0  0  0  0  0  0  0  0  0  0
   10.9197    2.2291    1.8905 H   0  0  0  0  0  0  0  0  0  0  0  0
    8.7958    2.8393    0.7203 H   0  0  0  0  0  0  0  0  0  0  0  0
    9.1082    4.5429    1.0218 H   0  0  0  0  0  0  0  0  0  0  0  0
    8.6039    2.3744    3.1303 H   0  0  0  0  0  0  0  0  0  0  0  0
    7.4711    3.6144    2.6508 H   0  0  0  0  0  0  0  0  0  0  0  0
    7.4793    6.1442    2.1207 H   0  0  0  0  0  0  0  0  0  0  0  0
    7.4815    8.5741    2.6446 H   0  0  0  0  0  0  0  0  0  0  0  0
    8.7609    9.4510    4.5691 H   0  0  0  0  0  0  0  0  0  0  0  0
   10.0786    7.9017    6.0156 H   0  0  0  0  0  0  0  0  0  0  0  0
    9.6584    1.8494    4.7998 H   0  0  0  0  0  0  0  0  0  0  0  0
   11.7002    3.3291    6.5407 H   0  0  0  0  0  0  0  0  0  0  0  0
   10.8866   -0.0547    4.9352 H   0  0  0  0  0  0  0  0  0  0  0  0
   11.7460   -2.1714    5.8137 H   0  0  0  0  0  0  0  0  0  0  0  0
   13.4983   -0.0862    9.1503 H   0  0  0  0  0  0  0  0  0  0  0  0
   12.6271    2.0153    8.3010 H   0  0  0  0  0  0  0  0  0  0  0  0
   14.0270   -3.7017    9.3130 H   0  0  0  0  0  0  0  0  0  0  0  0
   13.2058   -2.2850    9.9820 H   0  0  0  0  0  0  0  0  0  0  0  0
   14.7632   -2.1092    9.0817 H   0  0  0  0  0  0  0  0  0  0  0  0
  1  2  1  0  0  0  0
  1 28  1  0  0  0  0
  1 29  1  0  0  0  0
  1 30  1  0  0  0  0
  2  3  1  0  0  0  0
  2 31  1  0  0  0  0
  2 32  1  0  0  0  0
  3  4  1  0  0  0  0
  3 33  1  0  0  0  0
  3 34  1  0  0  0  0
  4  5  1  0  0  0  0
  4 35  1  0  0  0  0
  4 36  1  0  0  0  0
  5  6  1  0  0  0  0
  5 37  1  0  0  0  0
  5 38  1  0  0  0  0
  6  7  1  0  0  0  0
  6 39  1  0  0  0  0
  6 40  1  0  0  0  0
  7  8  1  0  0  0  0
  7 41  1  0  0  0  0
  7 42  1  0  0  0  0
  8  9  1  0  0  0  0
  8 43  1  0  0  0  0
  8 44  1  0  0  0  0
  9 10  1  0  0  0  0
  9 17  1  0  0  0  0
 10 11  2  0  0  0  0
 10 15  1  0  0  0  0
 11 12  1  0  0  0  0
 11 45  1  0  0  0  0
 12 13  2  0  0  0  0
 12 46  1  0  0  0  0
 13 14  1  0  0  0  0
 13 47  1  0  0  0  0
 14 15  2  0  0  0  0
 14 48  1  0  0  0  0
 15 16  1  0  0  0  0
 16 17  2  0  0  0  0
 17 18  1  0  0  0  0
 18 19  2  0  0  0  0
 18 49  1  0  0  0  0
 19 20  1  0  0  0  0
 19 50  1  0  0  0  0
 20 21  2  0  0  0  0
 20 25  1  0  0  0  0
 21 22  1  0  0  0  0
 21 51  1  0  0  0  0
 22 23  2  0  0  0  0
 22 52  1  0  0  0  0
 23 24  1  0  0  0  0
 23 26  1  0  0  0  0
 24 25  2  0  0  0  0
 24 53  1  0  0  0  0
 25 54  1  0  0  0  0
 26 27  1  0  0  0  0
 27 55  1  0  0  0  0
 27 56  1  0  0  0  0
 27 57  1  0  0  0  0
M  END
