
 OpenBabel10072620013D

 75 78  0  0  1  0  0  0  0  0999 V2000
    9.3498    9.8362   -3.4968 C   0  0  0  0  0  0  0  0  0  0  0  0
    8.2603    8.8152   -3.5780 C   0  0  0  0  0  0  0  0  0  0  0  0
    7.0594    9.0480   -4.1087 C   0  0  0  0  0  0  0  0  0  0  0  0
    6.0626    8.0954   -4.1519 N   0  0  0  0  0  0  0  0  0  0  0  0
    6.2424    6.8162   -3.6354 C   0  0  0  0  0  0  0  0  0  0  0  0
    5.3469    5.9702   -3.6446 O   0  0  0  0  0  0  0  0  0  0  0  0
    7.4980    6.5528   -3.0895 N   0  0  0  0  0  0  0  0  0  0  0  0
    8.5383    7.4691   -3.0266 C   0  0  0  0  0  0  0  0  0  0  0  0
    9.6489    7.2346   -2.5560 O   0  0  0  0  0  0  0  0  0  0  0  0
    7.7105    5.2405   -2.4789 C   0  0  0  0  0  0  0  0  0  0  0  0
    7.1806    5.2162   -1.0399 C   0  0  0  0  0  0  0  0  0  0  0  0
    7.5350    3.9471   -0.2515 C   0  0  0  0  0  0  0  0  0  0  0  0
    9.0337    3.6044   -0.1817 C   0  0  0  0  0  0  0  0  0  0  0  0
    9.8795    4.7828    0.0051 N   0  0  0  0  0  0  0  0  0  0  0  0
   11.2906    4.5183   -0.3326 C   0  0  0  0  0  0  0  0  0  0  0  0
   12.1283    3.8633    0.7940 C   0  0  0  0  0  0  0  0  0  0  0  0
   12.0332    4.5342    2.1125 N   0  0  0  0  0  0  0  0  0  0  0  0
   10.6001    4.6877    2.4389 C   0  0  0  0  0  0  0  0  0  0  0  0
    9.7698    5.3911    1.3431 C   0  0  0  0  0  0  0  0  0  0  0  0
   12.7628    5.8204    2.0834 C   0  0  0  0  0  0  0  0  0  0  0  0
   12.7516    6.6057    3.4086 C   0  0  0  0  0  0  0  0  0  0  0  0
   13.6107    7.7828    3.3238 N   0  0  0  0  0  0  0  0  0  0  0  0
   13.3941    9.0339    3.8086 C   0  0  0  0  0  0  0  0  0  0  0  0
   12.0028    9.5627    4.5716 S   0  0  0  0  0  0  0  0  0  0  0  0
   14.3980    9.9461    3.6456 N   0  0  0  0  0  0  0  0  0  0  0  0
   15.6717    9.7747    3.0865 C   0  0  0  0  0  0  0  0  0  0  0  0
   16.0394    8.5715    2.5874 N   0  0  0  0  0  0  0  0  0  0  0  0
   17.2949    8.4635    2.0877 C   0  0  0  0  0  0  0  0  0  0  0  0
   18.2106    9.5017    2.0706 C   0  0  0  0  0  0  0  0  0  0  0  0
   17.8201   10.7312    2.5828 C   0  0  0  0  0  0  0  0  0  0  0  0
   16.5304   10.8722    3.0975 C   0  0  0  0  0  0  0  0  0  0  0  0
   19.9438    9.2486    1.3764 Br  0  0  0  0  0  0  0  0  0  0  0  0
    4.7802    8.3869   -4.7774 C   0  0  1  0  0  0  0  0  0  0  0  0
    4.1536    9.6115   -4.2062 C   0  0  0  0  0  0  0  0  0  0  0  0
    3.8237   10.4487   -5.1913 C   0  0  0  0  0  0  0  0  0  0  0  0
    4.1753    9.8378   -6.5045 C   0  0  2  0  0  0  0  0  0  0  0  0
    4.9962    8.6928   -6.1728 O   0  0  0  0  0  0  0  0  0  0  0  0
    4.9591   10.7454   -7.4604 C   0  0  0  0  0  0  0  0  0  0  0  0
    6.2923   10.9630   -6.9951 O   0  0  0  0  0  0  0  0  0  0  0  0
    9.0427   10.7940   -3.9302 H   0  0  0  0  0  0  0  0  0  0  0  0
   10.2406    9.4995   -4.0372 H   0  0  0  0  0  0  0  0  0  0  0  0
    9.6244   10.0194   -2.4527 H   0  0  0  0  0  0  0  0  0  0  0  0
    6.8222   10.0251   -4.5208 H   0  0  0  0  0  0  0  0  0  0  0  0
    8.7770    5.0003   -2.5172 H   0  0  0  0  0  0  0  0  0  0  0  0
    7.1938    4.4746   -3.0702 H   0  0  0  0  0  0  0  0  0  0  0  0
    6.0874    5.3156   -1.0560 H   0  0  0  0  0  0  0  0  0  0  0  0
    7.5432    6.0979   -0.4966 H   0  0  0  0  0  0  0  0  0  0  0  0
    7.0035    3.0938   -0.6917 H   0  0  0  0  0  0  0  0  0  0  0  0
    7.1417    4.0583    0.7664 H   0  0  0  0  0  0  0  0  0  0  0  0
    9.2889    3.1188   -1.1323 H   0  0  0  0  0  0  0  0  0  0  0  0
    9.2029    2.8508    0.5969 H   0  0  0  0  0  0  0  0  0  0  0  0
   11.7483    5.4749   -0.6120 H   0  0  0  0  0  0  0  0  0  0  0  0
   11.3594    3.9033   -1.2388 H   0  0  0  0  0  0  0  0  0  0  0  0
   13.1766    3.8008    0.4759 H   0  0  0  0  0  0  0  0  0  0  0  0
   11.7990    2.8230    0.9165 H   0  0  0  0  0  0  0  0  0  0  0  0
   10.4707    5.2073    3.3941 H   0  0  0  0  0  0  0  0  0  0  0  0
   10.1845    3.6867    2.6153 H   0  0  0  0  0  0  0  0  0  0  0  0
   10.0950    6.4361    1.2652 H   0  0  0  0  0  0  0  0  0  0  0  0
    8.7262    5.4496    1.6706 H   0  0  0  0  0  0  0  0  0  0  0  0
   12.3982    6.4829    1.2890 H   0  0  0  0  0  0  0  0  0  0  0  0
   13.8123    5.6055    1.8381 H   0  0  0  0  0  0  0  0  0  0  0  0
   13.1402    5.9855    4.2233 H   0  0  0  0  0  0  0  0  0  0  0  0
   11.7357    6.9124    3.6661 H   0  0  0  0  0  0  0  0  0  0  0  0
   14.5606    7.6298    2.9845 H   0  0  0  0  0  0  0  0  0  0  0  0
   14.1715   10.8609    4.0133 H   0  0  0  0  0  0  0  0  0  0  0  0
   17.5448    7.4819    1.6959 H   0  0  0  0  0  0  0  0  0  0  0  0
   18.5039   11.5751    2.5937 H   0  0  0  0  0  0  0  0  0  0  0  0
   16.2165   11.8292    3.5039 H   0  0  0  0  0  0  0  0  0  0  0  0
    4.0816    7.5457   -4.7181 H   0  0  0  0  0  0  0  0  0  0  0  0
    3.9875    9.7750   -3.1527 H   0  0  0  0  0  0  0  0  0  0  0  0
    3.3385   11.4043   -5.0647 H   0  0  0  0  0  0  0  0  0  0  0  0
    3.2642    9.4836   -7.0008 H   0  0  0  0  0  0  0  0  0  0  0  0
    5.0424   10.2663   -8.4416 H   0  0  0  0  0  0  0  0  0  0  0  0
    4.4686   11.7147   -7.5910 H   0  0  0  0  0  0  0  0  0  0  0  0
    6.6446   10.0657   -6.8340 H   0  0  0  0  0  0  0  0  0  0  0  0
  1  2  1  0  0  0  0
  1 40  1  0  0  0  0
  1 41  1  0  0  0  0
  1 42  1  0  0  0  0
  2  3  2  0  0  0  0
  2  8  1  0  0  0  0
  3  4  1  0  0  0  0
  3 43  1  0  0  0  0
  4  5  1  0  0  0  0
  4 33  1  0  0  0  0
  5  6  2  0  0  0  0
  5  7  1  0  0  0  0
  7  8  1  0  0  0  0
  7 10  1  0  0  0  0
  8  9  2  0  0  0  0
 10 11  1  0  0  0  0
 10 44  1  0  0  0  0
 10 45  1  0  0  0  0
 11 12  1  0  0  0  0
 11 46  1  0  0  0  0
 11 47  1  0  0  0  0
 12 13  1  0  0  0  0
 12 48  1  0  0  0  0
 12 49  1  0  0  0  0
 13 14  1  0  0  0  0
 13 50  1  0  0  0  0
 13 51  1  0  0  0  0
 14 15  1  0  0  0  0
 14 19  1  0  0  0  0
 15 16  1  0  0  0  0
 15 52  1  0  0  0  0
 15 53  1  0  0  0  0
 16 17  1  0  0  0  0
 16 54  1  0  0  0  0
 16 55  1  0  0  0  0
 17 18  1  0  0  0  0
 17 20  1  0  0  0  0
 18 19  1  0  0  0  0
 18 56  1  0  0  0  0
 18 57  1  0  0  0  0
 19 58  1  0  0  0  0
 19 59  1  0  0  0  0
 20 21  1  0  0  0  0
 20 60  1  0  0  0  0
 20 61  1  0  0  0  0
 21 22  1  0  0  0  0
 21 62  1  0  0  0  0
 21 63  1  0  0  0  0
 22 23  1  0  0  0  0
 22 64  1  0  0  0  0
 23 24  2  0  0  0  0
 23 25  1  0  0  0  0
 25 26  1  0  0  0  0
 25 65  1  0  0  0  0
 26 27  2  0  0  0  0
 26 31  1  0  0  0  0
 27 28  1  0  0  0  0
 28 29  2  0  0  0  0
 28 66  1  0  0  0  0
 29 30  1  0  0  0  0
 29 32  1  0  0  0  0
 30 31  2  0  0  0  0
 30 67  1  0  0  0  0
 31 68  1  0  0  0  0
 33 34  1  0  0  0  0
 33 37  1  0  0  0  0
 33 69  1  1  0  0  0
 34 35  2  0  0  0  0
 34 70  1  0  0  0  0
 35 36  1  0  0  0  0
 35 71  1  0  0  0  0
 36 37  1  0  0  0  0
 36 38  1  0  0  0  0
 36 72  1  6  0  0  0
 38 39  1  0  0  0  0
 38 73  1  0  0  0  0
 38 74  1  0  0  0  0
 39 75  1  0  0  0  0
M  END
