
 OpenBabel10072616333D

 45 48  0  0  0  0  0  0  0  0999 V2000
   -3.3749    3.3489    1.8996 C   0  0  0  0  0  0  0  0  0  0  0  0
   -4.3306    2.3387    1.8356 C   0  0  0  0  0  0  0  0  0  0  0  0
   -4.0558    1.1542    1.1449 C   0  0  0  0  0  0  0  0  0  0  0  0
   -2.8339    0.9781    0.4898 C   0  0  0  0  0  0  0  0  0  0  0  0
   -1.8689    1.9911    0.5840 C   0  0  0  0  0  0  0  0  0  0  0  0
   -2.1428    3.1776    1.2734 C   0  0  0  0  0  0  0  0  0  0  0  0
   -2.4829   -0.1905   -0.2239 N   0  0  0  0  0  0  0  0  0  0  0  0
   -3.2335   -1.2780   -0.6075 C   0  0  0  0  0  0  0  0  0  0  0  0
   -2.3765   -2.6615   -1.0134 S   0  0  0  0  0  0  0  0  0  0  0  0
   -4.5817   -1.0635   -0.7490 N   0  0  0  0  0  0  0  0  0  0  0  0
   -5.6595   -1.9744   -0.7761 C   0  0  0  0  0  0  0  0  0  0  0  0
   -5.6159   -3.2471   -0.2006 C   0  0  0  0  0  0  0  0  0  0  0  0
   -6.7457   -4.0808   -0.2179 C   0  0  0  0  0  0  0  0  0  0  0  0
   -7.9434   -3.6554   -0.8039 C   0  0  0  0  0  0  0  0  0  0  0  0
   -7.9760   -2.3631   -1.3585 C   0  0  0  0  0  0  0  0  0  0  0  0
   -6.8554   -1.5282   -1.3376 C   0  0  0  0  0  0  0  0  0  0  0  0
   -9.1560   -4.4811   -0.8905 C   0  0  0  0  0  0  0  0  0  0  0  0
  -10.2298   -4.1147   -1.5665 N   0  0  0  0  0  0  0  0  0  0  0  0
  -11.2102   -5.0686   -1.5516 N   0  0  0  0  0  0  0  0  0  0  0  0
  -10.8546   -6.1747   -0.9330 C   0  0  0  0  0  0  0  0  0  0  0  0
   -9.3309   -6.0176   -0.1354 S   0  0  0  0  0  0  0  0  0  0  0  0
  -11.5405   -7.3486   -0.8868 N   0  0  0  0  0  0  0  0  0  0  0  0
  -12.5220   -7.7703   -1.8115 C   0  0  0  0  0  0  0  0  0  0  0  0
  -12.8808   -7.0234   -2.9469 C   0  0  0  0  0  0  0  0  0  0  0  0
  -13.9017   -7.4310   -3.8046 C   0  0  0  0  0  0  0  0  0  0  0  0
  -14.5844   -8.6055   -3.5371 C   0  0  0  0  0  0  0  0  0  0  0  0
  -14.2496   -9.3836   -2.4355 C   0  0  0  0  0  0  0  0  0  0  0  0
  -13.2356   -8.9575   -1.5660 C   0  0  0  0  0  0  0  0  0  0  0  0
  -15.5706   -8.9945   -4.3520 F   0  0  0  0  0  0  0  0  0  0  0  0
   -3.5924    4.2728    2.4303 H   0  0  0  0  0  0  0  0  0  0  0  0
   -5.2906    2.4649    2.3326 H   0  0  0  0  0  0  0  0  0  0  0  0
   -4.8022    0.3673    1.1859 H   0  0  0  0  0  0  0  0  0  0  0  0
   -0.8956    1.8812    0.1108 H   0  0  0  0  0  0  0  0  0  0  0  0
   -1.3909    3.9616    1.3291 H   0  0  0  0  0  0  0  0  0  0  0  0
   -1.4893   -0.3186   -0.3918 H   0  0  0  0  0  0  0  0  0  0  0  0
   -4.8073   -0.1101   -1.0140 H   0  0  0  0  0  0  0  0  0  0  0  0
   -4.7273   -3.6195    0.3014 H   0  0  0  0  0  0  0  0  0  0  0  0
   -6.6580   -5.0646    0.2367 H   0  0  0  0  0  0  0  0  0  0  0  0
   -8.8849   -1.9876   -1.8268 H   0  0  0  0  0  0  0  0  0  0  0  0
   -6.9287   -0.5372   -1.7830 H   0  0  0  0  0  0  0  0  0  0  0  0
  -11.1392   -8.1013   -0.3414 H   0  0  0  0  0  0  0  0  0  0  0  0
  -12.3593   -6.1077   -3.2098 H   0  0  0  0  0  0  0  0  0  0  0  0
  -14.1589   -6.8328   -4.6736 H   0  0  0  0  0  0  0  0  0  0  0  0
  -14.7904  -10.3077   -2.2562 H   0  0  0  0  0  0  0  0  0  0  0  0
  -13.0148   -9.5664   -0.6933 H   0  0  0  0  0  0  0  0  0  0  0  0
  1  2  2  0  0  0  0
  1  6  1  0  0  0  0
  1 30  1  0  0  0  0
  2  3  1  0  0  0  0
  2 31  1  0  0  0  0
  3  4  2  0  0  0  0
  3 32  1  0  0  0  0
  4  5  1  0  0  0  0
  4  7  1  0  0  0  0
  5  6  2  0  0  0  0
  5 33  1  0  0  0  0
  6 34  1  0  0  0  0
  7  8  1  0  0  0  0
  7 35  1  0  0  0  0
  8  9  2  0  0  0  0
  8 10  1  0  0  0  0
 10 11  1  0  0  0  0
 10 36  1  0  0  0  0
 11 12  2  0  0  0  0
 11 16  1  0  0  0  0
 12 13  1  0  0  0  0
 12 37  1  0  0  0  0
 13 14  2  0  0  0  0
 13 38  1  0  0  0  0
 14 15  1  0  0  0  0
 14 17  1  0  0  0  0
 15 16  2  0  0  0  0
 15 39  1  0  0  0  0
 16 40  1  0  0  0  0
 17 18  2  0  0  0  0
 17 21  1  0  0  0  0
 18 19  1  0  0  0  0
 19 20  2  0  0  0  0
 20 21  1  0  0  0  0
 20 22  1  0  0  0  0
 22 23  1  0  0  0  0
 22 41  1  0  0  0  0
 23 24  2  0  0  0  0
 23 28  1  0  0  0  0
 24 25  1  0  0  0  0
 24 42  1  0  0  0  0
 25 26  2  0  0  0  0
 25 43  1  0  0  0  0
 26 27  1  0  0  0  0
 26 29  1  0  0  0  0
 27 28  2  0  0  0  0
 27 44  1  0  0  0  0
 28 45  1  0  0  0  0
M  END
