
 OpenBabel10072616273D

 35 35  0  0  0  0  0  0  0  0999 V2000
   -3.8605    2.1403    3.6637 C   0  0  0  0  0  0  0  0  0  0  0  0
   -4.7416    1.0969    3.3902 C   0  0  0  0  0  0  0  0  0  0  0  0
   -4.4709    0.2050    2.3491 C   0  0  0  0  0  0  0  0  0  0  0  0
   -3.3241    0.3592    1.5643 C   0  0  0  0  0  0  0  0  0  0  0  0
   -2.4335    1.3964    1.8623 C   0  0  0  0  0  0  0  0  0  0  0  0
   -2.7058    2.2903    2.8994 C   0  0  0  0  0  0  0  0  0  0  0  0
   -2.9618   -0.5216    0.5255 N   0  0  0  0  0  0  0  0  0  0  0  0
   -3.6899   -1.4581   -0.1541 C   0  0  0  0  0  0  0  0  0  0  0  0
   -2.8535   -2.6867   -0.9202 S   0  0  0  0  0  0  0  0  0  0  0  0
   -5.0403   -1.2661   -0.2034 N   0  0  0  0  0  0  0  0  0  0  0  0
   -6.0270   -2.1502   -0.8098 C   0  0  0  0  0  0  0  0  0  0  0  0
   -7.4034   -1.4921   -0.8992 C   0  0  0  0  0  0  0  0  0  0  0  0
   -7.4454   -0.3952   -1.9678 C   0  0  0  0  0  0  0  0  0  0  0  0
   -8.8400    0.2240   -2.0846 C   0  0  0  0  0  0  0  0  0  0  0  0
   -8.8419    1.3695   -3.0953 C   0  0  0  0  0  0  0  0  0  0  0  0
  -10.1685    1.9643   -3.2001 N   0  0  0  0  0  0  0  0  0  0  0  0
   -4.0671    2.8275    4.4796 H   0  0  0  0  0  0  0  0  0  0  0  0
   -5.6335    0.9647    3.9977 H   0  0  0  0  0  0  0  0  0  0  0  0
   -5.1439   -0.6356    2.2115 H   0  0  0  0  0  0  0  0  0  0  0  0
   -1.5262    1.5318    1.2784 H   0  0  0  0  0  0  0  0  0  0  0  0
   -2.0120    3.0986    3.1156 H   0  0  0  0  0  0  0  0  0  0  0  0
   -1.9716   -0.5539    0.3055 H   0  0  0  0  0  0  0  0  0  0  0  0
   -5.3547   -0.3417    0.0612 H   0  0  0  0  0  0  0  0  0  0  0  0
   -6.0852   -3.0420   -0.1754 H   0  0  0  0  0  0  0  0  0  0  0  0
   -5.6837   -2.4622   -1.8021 H   0  0  0  0  0  0  0  0  0  0  0  0
   -7.6800   -1.0682    0.0745 H   0  0  0  0  0  0  0  0  0  0  0  0
   -8.1454   -2.2612   -1.1438 H   0  0  0  0  0  0  0  0  0  0  0  0
   -7.1521   -0.8147   -2.9381 H   0  0  0  0  0  0  0  0  0  0  0  0
   -6.7187    0.3888   -1.7254 H   0  0  0  0  0  0  0  0  0  0  0  0
   -9.1618    0.5940   -1.1034 H   0  0  0  0  0  0  0  0  0  0  0  0
   -9.5577   -0.5476   -2.3885 H   0  0  0  0  0  0  0  0  0  0  0  0
   -8.5263    1.0062   -4.0793 H   0  0  0  0  0  0  0  0  0  0  0  0
   -8.1306    2.1406   -2.7817 H   0  0  0  0  0  0  0  0  0  0  0  0
  -10.8221    1.2793   -3.5765 H   0  0  0  0  0  0  0  0  0  0  0  0
  -10.1388    2.7286   -3.8747 H   0  0  0  0  0  0  0  0  0  0  0  0
  1  2  2  0  0  0  0
  1  6  1  0  0  0  0
  1 17  1  0  0  0  0
  2  3  1  0  0  0  0
  2 18  1  0  0  0  0
  3  4  2  0  0  0  0
  3 19  1  0  0  0  0
  4  5  1  0  0  0  0
  4  7  1  0  0  0  0
  5  6  2  0  0  0  0
  5 20  1  0  0  0  0
  6 21  1  0  0  0  0
  7  8  1  0  0  0  0
  7 22  1  0  0  0  0
  8  9  2  0  0  0  0
  8 10  1  0  0  0  0
 10 11  1  0  0  0  0
 10 23  1  0  0  0  0
 11 12  1  0  0  0  0
 11 24  1  0  0  0  0
 11 25  1  0  0  0  0
 12 13  1  0  0  0  0
 12 26  1  0  0  0  0
 12 27  1  0  0  0  0
 13 14  1  0  0  0  0
 13 28  1  0  0  0  0
 13 29  1  0  0  0  0
 14 15  1  0  0  0  0
 14 30  1  0  0  0  0
 14 31  1  0  0  0  0
 15 16  1  0  0  0  0
 15 32  1  0  0  0  0
 15 33  1  0  0  0  0
 16 34  1  0  0  0  0
 16 35  1  0  0  0  0
M  END
