
 OpenBabel10072619523D

 41 43  0  0  0  0  0  0  0  0999 V2000
    0.5956    0.9837    1.9640 C   0  0  0  0  0  0  0  0  0  0  0  0
    2.0455    0.5935    2.1756 C   0  0  0  0  0  0  0  0  0  0  0  0
    3.1598    1.6732    1.2864 S   0  0  0  0  0  0  0  0  0  0  0  0
    2.8816    1.5408   -0.1263 O   0  0  0  0  0  0  0  0  0  0  0  0
    3.1936    2.9690    1.9286 O   0  0  0  0  0  0  0  0  0  0  0  0
    4.6361    0.8702    1.5174 N   0  0  0  0  0  0  0  0  0  0  0  0
    5.5030    1.3671    2.5341 C   0  0  0  0  0  0  0  0  0  0  0  0
    6.4312    2.3548    2.2275 C   0  0  0  0  0  0  0  0  0  0  0  0
    7.2899    2.8626    3.2213 C   0  0  0  0  0  0  0  0  0  0  0  0
    7.2149    2.3844    4.5495 C   0  0  0  0  0  0  0  0  0  0  0  0
    6.2323    1.4225    4.8359 C   0  0  0  0  0  0  0  0  0  0  0  0
    5.3828    0.9185    3.8406 C   0  0  0  0  0  0  0  0  0  0  0  0
    8.1046    2.9083    5.5596 N   0  0  0  0  0  0  0  0  0  0  0  0
    8.9298    4.0662    5.1828 C   0  0  0  0  0  0  0  0  0  0  0  0
    9.4304    3.9981    3.7538 C   0  0  0  0  0  0  0  0  0  0  0  0
    8.2471    3.9500    2.8148 C   0  0  0  0  0  0  0  0  0  0  0  0
    8.2555    2.3144    6.8399 C   0  0  0  0  0  0  0  0  0  0  0  0
    7.9104    1.1624    7.0945 O   0  0  0  0  0  0  0  0  0  0  0  0
    8.8742    3.1443    7.8712 C   0  0  0  0  0  0  0  0  0  0  0  0
    8.5448    4.4258    8.2733 C   0  0  0  0  0  0  0  0  0  0  0  0
    9.4288    4.9196    9.2748 C   0  0  0  0  0  0  0  0  0  0  0  0
   10.3834    3.9914    9.6250 C   0  0  0  0  0  0  0  0  0  0  0  0
   10.1913    2.5217    8.7723 S   0  0  0  0  0  0  0  0  0  0  0  0
   -0.0609    0.3206    2.5365 H   0  0  0  0  0  0  0  0  0  0  0  0
    0.3155    0.9082    0.9081 H   0  0  0  0  0  0  0  0  0  0  0  0
    0.4091    2.0129    2.2867 H   0  0  0  0  0  0  0  0  0  0  0  0
    2.2141   -0.4255    1.8149 H   0  0  0  0  0  0  0  0  0  0  0  0
    2.3033    0.6549    3.2361 H   0  0  0  0  0  0  0  0  0  0  0  0
    5.0778    0.7524    0.6032 H   0  0  0  0  0  0  0  0  0  0  0  0
    6.4918    2.7409    1.2130 H   0  0  0  0  0  0  0  0  0  0  0  0
    6.0825    1.0436    5.8426 H   0  0  0  0  0  0  0  0  0  0  0  0
    4.6499    0.1623    4.1067 H   0  0  0  0  0  0  0  0  0  0  0  0
    9.8144    4.1306    5.8228 H   0  0  0  0  0  0  0  0  0  0  0  0
    8.3305    4.9702    5.3469 H   0  0  0  0  0  0  0  0  0  0  0  0
   10.0526    3.1037    3.6246 H   0  0  0  0  0  0  0  0  0  0  0  0
   10.0562    4.8684    3.5270 H   0  0  0  0  0  0  0  0  0  0  0  0
    8.6116    3.7809    1.7945 H   0  0  0  0  0  0  0  0  0  0  0  0
    7.7122    4.9077    2.8231 H   0  0  0  0  0  0  0  0  0  0  0  0
    7.7171    4.9854    7.8537 H   0  0  0  0  0  0  0  0  0  0  0  0
    9.3713    5.9055    9.7173 H   0  0  0  0  0  0  0  0  0  0  0  0
   11.1761    4.0986   10.3529 H   0  0  0  0  0  0  0  0  0  0  0  0
  1  2  1  0  0  0  0
  1 24  1  0  0  0  0
  1 25  1  0  0  0  0
  1 26  1  0  0  0  0
  2  3  1  0  0  0  0
  2 27  1  0  0  0  0
  2 28  1  0  0  0  0
  3  4  2  0  0  0  0
  3  5  2  0  0  0  0
  3  6  1  0  0  0  0
  6  7  1  0  0  0  0
  6 29  1  0  0  0  0
  7  8  2  0  0  0  0
  7 12  1  0  0  0  0
  8  9  1  0  0  0  0
  8 30  1  0  0  0  0
  9 10  2  0  0  0  0
  9 16  1  0  0  0  0
 10 11  1  0  0  0  0
 10 13  1  0  0  0  0
 11 12  2  0  0  0  0
 11 31  1  0  0  0  0
 12 32  1  0  0  0  0
 13 14  1  0  0  0  0
 13 17  1  0  0  0  0
 14 15  1  0  0  0  0
 14 33  1  0  0  0  0
 14 34  1  0  0  0  0
 15 16  1  0  0  0  0
 15 35  1  0  0  0  0
 15 36  1  0  0  0  0
 16 37  1  0  0  0  0
 16 38  1  0  0  0  0
 17 18  2  0  0  0  0
 17 19  1  0  0  0  0
 19 20  2  0  0  0  0
 19 23  1  0  0  0  0
 20 21  1  0  0  0  0
 20 39  1  0  0  0  0
 21 22  2  0  0  0  0
 21 40  1  0  0  0  0
 22 23  1  0  0  0  0
 22 41  1  0  0  0  0
M  END
