
 OpenBabel10072619483D

 72 75  0  0  1  0  0  0  0  0999 V2000
    1.0376   -1.4409    0.0235 C   0  0  0  0  0  0  0  0  0  0  0  0
    1.7430   -0.2272   -0.5517 C   0  0  0  0  0  0  0  0  0  0  0  0
    2.6370   -0.6347   -1.5942 O   0  0  0  0  0  0  0  0  0  0  0  0
    3.8832   -1.0140   -1.1986 C   0  0  0  0  0  0  0  0  0  0  0  0
    4.2729   -0.9677   -0.0367 O   0  0  0  0  0  0  0  0  0  0  0  0
    4.6482   -1.5094   -2.2553 N   0  0  0  0  0  0  0  0  0  0  0  0
    5.8414   -2.2513   -1.8786 C   0  0  0  0  0  0  0  0  0  0  0  0
    6.7999   -2.4855   -3.0332 C   0  0  0  0  0  0  0  0  0  0  0  0
    6.1384   -3.0557   -4.2990 C   0  0  0  0  0  0  0  0  0  0  0  0
    4.9252   -2.1801   -4.6605 C   0  0  0  0  0  0  0  0  0  0  0  0
    3.9848   -1.8641   -3.5042 C   0  0  0  0  0  0  0  0  0  0  0  0
    5.9016   -4.5181   -4.3687 N   0  0  3  0  0  0  0  0  0  0  0  0
    7.1622   -5.2786   -4.3183 C   0  0  0  0  0  0  0  0  0  0  0  0
    6.9387   -6.7497   -4.6672 C   0  0  0  0  0  0  0  0  0  0  0  0
    5.9357   -7.4268   -3.7170 C   0  0  3  0  0  0  0  0  0  0  0  0
    4.6534   -6.5789   -3.7277 C   0  0  0  0  0  0  0  0  0  0  0  0
    4.8980   -5.0863   -3.4704 C   0  0  0  0  0  0  0  0  0  0  0  0
    6.5404   -7.7516   -2.3462 C   0  0  0  0  0  0  0  0  0  0  0  0
    6.1220   -7.3126   -1.1461 C   0  0  0  0  0  0  0  0  0  0  0  0
    7.6330   -8.7488   -2.3355 C   0  0  0  0  0  0  0  0  0  0  0  0
    7.3582  -10.0826   -2.6713 C   0  0  0  0  0  0  0  0  0  0  0  0
    8.3767  -11.0362   -2.6804 C   0  0  0  0  0  0  0  0  0  0  0  0
    9.6752  -10.6534   -2.3369 C   0  0  0  0  0  0  0  0  0  0  0  0
    9.9669   -9.3273   -2.0007 C   0  0  0  0  0  0  0  0  0  0  0  0
    8.9419   -8.3793   -1.9915 C   0  0  0  0  0  0  0  0  0  0  0  0
   10.9948  -11.8447   -2.3857 S   0  0  0  0  0  0  0  0  0  0  0  0
   10.4755  -13.0564   -2.9971 O   0  0  0  0  0  0  0  0  0  0  0  0
   12.1483  -11.1737   -2.9564 O   0  0  0  0  0  0  0  0  0  0  0  0
   11.3846  -12.2380   -0.6952 C   0  0  0  0  0  0  0  0  0  0  0  0
   10.7484  -13.3055   -0.0558 C   0  0  0  0  0  0  0  0  0  0  0  0
   11.0963  -13.6296    1.2604 C   0  0  0  0  0  0  0  0  0  0  0  0
   12.0808  -12.8961    1.9278 C   0  0  0  0  0  0  0  0  0  0  0  0
   12.7117  -11.8334    1.2748 C   0  0  0  0  0  0  0  0  0  0  0  0
   12.3763  -11.5073   -0.0389 C   0  0  0  0  0  0  0  0  0  0  0  0
   12.5025  -13.1095    3.2114 O   0  0  0  0  0  0  0  0  0  0  0  0
   12.1207  -14.3443    3.8075 C   0  0  0  0  0  0  0  0  0  0  0  0
    0.3379   -1.1478    0.8097 H   0  0  0  0  0  0  0  0  0  0  0  0
    1.7545   -2.1544    0.4404 H   0  0  0  0  0  0  0  0  0  0  0  0
    0.4836   -1.9718   -0.7573 H   0  0  0  0  0  0  0  0  0  0  0  0
    2.2661    0.3414    0.2247 H   0  0  0  0  0  0  0  0  0  0  0  0
    1.0086    0.4449   -1.0058 H   0  0  0  0  0  0  0  0  0  0  0  0
    5.5201   -3.1902   -1.4209 H   0  0  0  0  0  0  0  0  0  0  0  0
    6.3707   -1.7013   -1.0907 H   0  0  0  0  0  0  0  0  0  0  0  0
    7.6414   -3.1014   -2.7003 H   0  0  0  0  0  0  0  0  0  0  0  0
    7.2381   -1.5138   -3.3021 H   0  0  0  0  0  0  0  0  0  0  0  0
    6.8534   -2.8660   -5.1144 H   0  0  0  0  0  0  0  0  0  0  0  0
    4.3579   -2.6183   -5.4907 H   0  0  0  0  0  0  0  0  0  0  0  0
    5.3130   -1.2245   -5.0435 H   0  0  0  0  0  0  0  0  0  0  0  0
    3.3156   -2.7000   -3.2877 H   0  0  0  0  0  0  0  0  0  0  0  0
    3.3383   -1.0326   -3.8096 H   0  0  0  0  0  0  0  0  0  0  0  0
    7.6403   -5.2025   -3.3343 H   0  0  0  0  0  0  0  0  0  0  0  0
    7.8686   -4.8743   -5.0544 H   0  0  0  0  0  0  0  0  0  0  0  0
    7.9004   -7.2744   -4.6780 H   0  0  0  0  0  0  0  0  0  0  0  0
    6.5502   -6.8138   -5.6934 H   0  0  0  0  0  0  0  0  0  0  0  0
    5.6598   -8.3900   -4.1693 H   0  0  0  0  0  0  0  0  0  0  0  0
    3.9200   -6.9683   -3.0122 H   0  0  0  0  0  0  0  0  0  0  0  0
    4.1850   -6.6787   -4.7172 H   0  0  0  0  0  0  0  0  0  0  0  0
    5.1754   -4.9446   -2.4260 H   0  0  0  0  0  0  0  0  0  0  0  0
    3.9330   -4.6023   -3.6280 H   0  0  0  0  0  0  0  0  0  0  0  0
    5.2818   -6.6410   -1.0218 H   0  0  0  0  0  0  0  0  0  0  0  0
    6.5977   -7.6357   -0.2226 H   0  0  0  0  0  0  0  0  0  0  0  0
    6.3451  -10.3812   -2.9344 H   0  0  0  0  0  0  0  0  0  0  0  0
    8.1496  -12.0615   -2.9639 H   0  0  0  0  0  0  0  0  0  0  0  0
   10.9834   -9.0221   -1.7616 H   0  0  0  0  0  0  0  0  0  0  0  0
    9.1715   -7.3452   -1.7421 H   0  0  0  0  0  0  0  0  0  0  0  0
    9.9928  -13.8952   -0.5705 H   0  0  0  0  0  0  0  0  0  0  0  0
   10.5814  -14.4577    1.7378 H   0  0  0  0  0  0  0  0  0  0  0  0
   13.4842  -11.2695    1.7931 H   0  0  0  0  0  0  0  0  0  0  0  0
   12.9009  -10.6961   -0.5368 H   0  0  0  0  0  0  0  0  0  0  0  0
   12.5885  -14.3980    4.7958 H   0  0  0  0  0  0  0  0  0  0  0  0
   12.4820  -15.1929    3.2153 H   0  0  0  0  0  0  0  0  0  0  0  0
   11.0365  -14.3963    3.9535 H   0  0  0  0  0  0  0  0  0  0  0  0
  1  2  1  0  0  0  0
  1 37  1  0  0  0  0
  1 38  1  0  0  0  0
  1 39  1  0  0  0  0
  2  3  1  0  0  0  0
  2 40  1  0  0  0  0
  2 41  1  0  0  0  0
  3  4  1  0  0  0  0
  4  5  2  0  0  0  0
  4  6  1  0  0  0  0
  6  7  1  0  0  0  0
  6 11  1  0  0  0  0
  7  8  1  0  0  0  0
  7 42  1  0  0  0  0
  7 43  1  0  0  0  0
  8  9  1  0  0  0  0
  8 44  1  0  0  0  0
  8 45  1  0  0  0  0
  9 10  1  0  0  0  0
  9 12  1  0  0  0  0
  9 46  1  0  0  0  0
 10 11  1  0  0  0  0
 10 47  1  0  0  0  0
 10 48  1  0  0  0  0
 11 49  1  0  0  0  0
 11 50  1  0  0  0  0
 12 13  1  0  0  0  0
 12 17  1  0  0  0  0
 13 14  1  0  0  0  0
 13 51  1  0  0  0  0
 13 52  1  0  0  0  0
 14 15  1  0  0  0  0
 14 53  1  0  0  0  0
 14 54  1  0  0  0  0
 15 16  1  0  0  0  0
 15 18  1  0  0  0  0
 15 55  1  0  0  0  0
 16 17  1  0  0  0  0
 16 56  1  0  0  0  0
 16 57  1  0  0  0  0
 17 58  1  0  0  0  0
 17 59  1  0  0  0  0
 18 19  2  0  0  0  0
 18 20  1  0  0  0  0
 19 60  1  0  0  0  0
 19 61  1  0  0  0  0
 20 21  2  0  0  0  0
 20 25  1  0  0  0  0
 21 22  1  0  0  0  0
 21 62  1  0  0  0  0
 22 23  2  0  0  0  0
 22 63  1  0  0  0  0
 23 24  1  0  0  0  0
 23 26  1  0  0  0  0
 24 25  2  0  0  0  0
 24 64  1  0  0  0  0
 25 65  1  0  0  0  0
 26 27  2  0  0  0  0
 26 28  2  0  0  0  0
 26 29  1  0  0  0  0
 29 30  2  0  0  0  0
 29 34  1  0  0  0  0
 30 31  1  0  0  0  0
 30 66  1  0  0  0  0
 31 32  2  0  0  0  0
 31 67  1  0  0  0  0
 32 33  1  0  0  0  0
 32 35  1  0  0  0  0
 33 34  2  0  0  0  0
 33 68  1  0  0  0  0
 34 69  1  0  0  0  0
 35 36  1  0  0  0  0
 36 70  1  0  0  0  0
 36 71  1  0  0  0  0
 36 72  1  0  0  0  0
M  END
