
 OpenBabel10072620083D

 68 71  0  0  1  0  0  0  0  0999 V2000
   -0.5463   -1.1389   -0.8841 C   0  0  0  0  0  0  0  0  0  0  0  0
    0.5659   -0.2935   -0.8351 C   0  0  0  0  0  0  0  0  0  0  0  0
    0.5286    0.8292   -0.0188 C   0  0  0  0  0  0  0  0  0  0  0  0
   -0.6053    1.1121    0.7368 C   0  0  0  0  0  0  0  0  0  0  0  0
   -1.7159    0.2813    0.6925 C   0  0  0  0  0  0  0  0  0  0  0  0
   -1.6928   -0.8624   -0.1206 C   0  0  0  0  0  0  0  0  0  0  0  0
   -2.8766   -1.8010   -0.1487 C   0  0  0  0  0  0  0  0  0  0  0  0
   -2.6161   -3.1660    0.5163 C   0  0  3  0  0  0  0  0  0  0  0  0
   -2.0373   -3.0056    1.9319 C   0  0  0  0  0  0  0  0  0  0  0  0
   -0.8846   -3.3252    2.2132 O   0  0  0  0  0  0  0  0  0  0  0  0
   -2.8871   -2.4251    2.8455 N   0  0  0  0  0  0  0  0  0  0  0  0
   -2.3976   -1.9601    4.1272 C   0  0  0  0  0  0  0  0  0  0  0  0
   -3.1916   -0.7249    4.5514 C   0  0  0  0  0  0  0  0  0  0  0  0
   -4.2608   -0.4236    4.0206 O   0  0  0  0  0  0  0  0  0  0  0  0
   -2.6012   -0.0292    5.5922 N   0  0  0  0  0  0  0  0  0  0  0  0
   -3.1438    1.1038    6.1505 C   0  0  0  0  0  0  0  0  0  0  0  0
   -2.5277    1.7718    7.1365 C   0  0  0  0  0  0  0  0  0  0  0  0
   -2.9929    2.9590    7.7847 C   0  0  0  0  0  0  0  0  0  0  0  0
   -4.1775    3.6182    7.5356 C   0  0  0  0  0  0  0  0  0  0  0  0
   -4.2380    4.7104    8.3623 N   0  0  0  0  0  0  0  0  0  0  0  0
   -3.1128    4.7744    9.1524 C   0  0  0  0  0  0  0  0  0  0  0  0
   -2.3088    3.6837    8.8128 C   0  0  0  0  0  0  0  0  0  0  0  0
   -1.0791    3.5217    9.4889 C   0  0  0  0  0  0  0  0  0  0  0  0
   -0.6985    4.4458   10.4693 C   0  0  0  0  0  0  0  0  0  0  0  0
   -1.5268    5.5200   10.7791 C   0  0  0  0  0  0  0  0  0  0  0  0
   -2.7507    5.7099   10.1313 C   0  0  0  0  0  0  0  0  0  0  0  0
   -0.9855    6.7545   12.1087 Br  0  0  0  0  0  0  0  0  0  0  0  0
   -3.8484   -3.9481    0.5991 N   0  0  0  0  0  0  0  0  0  0  0  0
   -4.3416   -4.6526   -0.4751 C   0  0  0  0  0  0  0  0  0  0  0  0
   -3.8689   -4.5645   -1.6038 O   0  0  0  0  0  0  0  0  0  0  0  0
   -5.5907   -5.4956   -0.1353 C   0  0  3  0  0  0  0  0  0  0  0  0
   -5.6692   -6.7082   -1.0843 C   0  0  0  0  0  0  0  0  0  0  0  0
   -6.9359   -7.4838   -0.9363 C   0  0  0  0  0  0  0  0  0  0  0  0
   -7.2750   -8.5649   -0.1509 C   0  0  0  0  0  0  0  0  0  0  0  0
   -8.5806   -8.9252   -0.3525 N   0  0  0  0  0  0  0  0  0  0  0  0
   -9.0311   -8.1034   -1.2711 C   0  0  0  0  0  0  0  0  0  0  0  0
   -8.0691   -7.2187   -1.6672 N   0  0  0  0  0  0  0  0  0  0  0  0
   -5.5618   -5.8723    1.3071 N   0  0  0  0  0  0  0  0  0  0  0  0
   -0.6274    2.2161    1.5405 O   0  0  0  0  0  0  0  0  0  0  0  0
    1.5875    1.6896    0.0752 O   0  0  0  0  0  0  0  0  0  0  0  0
   -0.5116   -2.0232   -1.5180 H   0  0  0  0  0  0  0  0  0  0  0  0
    1.4407   -0.5333   -1.4298 H   0  0  0  0  0  0  0  0  0  0  0  0
   -2.5857    0.5276    1.2965 H   0  0  0  0  0  0  0  0  0  0  0  0
   -3.1722   -1.9488   -1.1956 H   0  0  0  0  0  0  0  0  0  0  0  0
   -3.7408   -1.3140    0.3233 H   0  0  0  0  0  0  0  0  0  0  0  0
   -1.8909   -3.7418   -0.0725 H   0  0  0  0  0  0  0  0  0  0  0  0
   -3.7802   -2.0491    2.5381 H   0  0  0  0  0  0  0  0  0  0  0  0
   -1.3342   -1.7117    4.0548 H   0  0  0  0  0  0  0  0  0  0  0  0
   -2.5443   -2.7583    4.8605 H   0  0  0  0  0  0  0  0  0  0  0  0
   -1.6993   -0.3447    5.9319 H   0  0  0  0  0  0  0  0  0  0  0  0
   -4.0987    1.4276    5.7410 H   0  0  0  0  0  0  0  0  0  0  0  0
   -1.5730    1.3905    7.4892 H   0  0  0  0  0  0  0  0  0  0  0  0
   -4.9858    3.4176    6.8448 H   0  0  0  0  0  0  0  0  0  0  0  0
   -4.9969    5.3777    8.3904 H   0  0  0  0  0  0  0  0  0  0  0  0
   -0.4255    2.6874    9.2529 H   0  0  0  0  0  0  0  0  0  0  0  0
    0.2506    4.3126   10.9817 H   0  0  0  0  0  0  0  0  0  0  0  0
   -3.3954    6.5477   10.3741 H   0  0  0  0  0  0  0  0  0  0  0  0
   -4.2189   -4.2359    1.5048 H   0  0  0  0  0  0  0  0  0  0  0  0
   -6.4573   -4.8402   -0.2905 H   0  0  0  0  0  0  0  0  0  0  0  0
   -4.8117   -7.3720   -0.9094 H   0  0  0  0  0  0  0  0  0  0  0  0
   -5.5799   -6.3747   -2.1268 H   0  0  0  0  0  0  0  0  0  0  0  0
   -6.6527   -9.0996    0.5556 H   0  0  0  0  0  0  0  0  0  0  0  0
  -10.0303   -8.1011   -1.6859 H   0  0  0  0  0  0  0  0  0  0  0  0
   -8.1802   -6.5040   -2.3743 H   0  0  0  0  0  0  0  0  0  0  0  0
   -4.8801   -6.6246    1.4275 H   0  0  0  0  0  0  0  0  0  0  0  0
   -6.4630   -6.3055    1.5285 H   0  0  0  0  0  0  0  0  0  0  0  0
    0.2399    2.6421    1.3885 H   0  0  0  0  0  0  0  0  0  0  0  0
    2.2999    1.3496   -0.4932 H   0  0  0  0  0  0  0  0  0  0  0  0
  1  2  2  0  0  0  0
  1  6  1  0  0  0  0
  1 41  1  0  0  0  0
  2  3  1  0  0  0  0
  2 42  1  0  0  0  0
  3  4  2  0  0  0  0
  3 40  1  0  0  0  0
  4  5  1  0  0  0  0
  4 39  1  0  0  0  0
  5  6  2  0  0  0  0
  5 43  1  0  0  0  0
  6  7  1  0  0  0  0
  7  8  1  0  0  0  0
  7 44  1  0  0  0  0
  7 45  1  0  0  0  0
  8  9  1  0  0  0  0
  8 28  1  0  0  0  0
  8 46  1  0  0  0  0
  9 10  2  0  0  0  0
  9 11  1  0  0  0  0
 11 12  1  0  0  0  0
 11 47  1  0  0  0  0
 12 13  1  0  0  0  0
 12 48  1  0  0  0  0
 12 49  1  0  0  0  0
 13 14  2  0  0  0  0
 13 15  1  0  0  0  0
 15 16  1  0  0  0  0
 15 50  1  0  0  0  0
 16 17  2  0  0  0  0
 16 51  1  0  0  0  0
 17 18  1  0  0  0  0
 17 52  1  0  0  0  0
 18 19  2  0  0  0  0
 18 22  1  0  0  0  0
 19 20  1  0  0  0  0
 19 53  1  0  0  0  0
 20 21  1  0  0  0  0
 20 54  1  0  0  0  0
 21 22  2  0  0  0  0
 21 26  1  0  0  0  0
 22 23  1  0  0  0  0
 23 24  2  0  0  0  0
 23 55  1  0  0  0  0
 24 25  1  0  0  0  0
 24 56  1  0  0  0  0
 25 26  2  0  0  0  0
 25 27  1  0  0  0  0
 26 57  1  0  0  0  0
 28 29  1  0  0  0  0
 28 58  1  0  0  0  0
 29 30  2  0  0  0  0
 29 31  1  0  0  0  0
 31 32  1  0  0  0  0
 31 38  1  0  0  0  0
 31 59  1  0  0  0  0
 32 33  1  0  0  0  0
 32 60  1  0  0  0  0
 32 61  1  0  0  0  0
 33 34  2  0  0  0  0
 33 37  1  0  0  0  0
 34 35  1  0  0  0  0
 34 62  1  0  0  0  0
 35 36  2  0  0  0  0
 36 37  1  0  0  0  0
 36 63  1  0  0  0  0
 37 64  1  0  0  0  0
 38 65  1  0  0  0  0
 38 66  1  0  0  0  0
 39 67  1  0  0  0  0
 40 68  1  0  0  0  0
M  END
