
 OpenBabel10072616333D

 44 46  0  0  0  0  0  0  0  0999 V2000
    0.5098    0.1360   -1.1876 C   0  0  0  0  0  0  0  0  0  0  0  0
    1.9118    0.1392   -1.6000 N   0  0  0  0  0  0  0  0  0  0  0  0
    2.6130   -1.1354   -1.4186 C   0  0  0  0  0  0  0  0  0  0  0  0
    2.6593    1.3036   -1.3639 C   0  0  0  0  0  0  0  0  0  0  0  0
    2.0882    2.4730   -0.8314 C   0  0  0  0  0  0  0  0  0  0  0  0
    2.8305    3.6361   -0.5835 C   0  0  0  0  0  0  0  0  0  0  0  0
    4.1857    3.6706   -0.8583 C   0  0  0  0  0  0  0  0  0  0  0  0
    4.7722    2.5345   -1.4290 C   0  0  0  0  0  0  0  0  0  0  0  0
    4.0191    1.3825   -1.6903 C   0  0  0  0  0  0  0  0  0  0  0  0
    5.0217    4.7877   -0.7025 N   0  0  0  0  0  0  0  0  0  0  0  0
    4.8104    6.0868   -0.2944 C   0  0  0  0  0  0  0  0  0  0  0  0
    3.6300    6.7093    0.7061 S   0  0  0  0  0  0  0  0  0  0  0  0
    5.6873    6.9951   -0.8788 N   0  0  0  0  0  0  0  0  0  0  0  0
    6.5891    6.6443   -1.8630 C   0  0  0  0  0  0  0  0  0  0  0  0
    7.2430    5.6021   -1.8107 O   0  0  0  0  0  0  0  0  0  0  0  0
    6.8409    7.5906   -2.9737 C   0  0  0  0  0  0  0  0  0  0  0  0
    8.1976    7.7040   -3.3093 C   0  0  0  0  0  0  0  0  0  0  0  0
    8.5763    8.4022   -4.4390 C   0  0  0  0  0  0  0  0  0  0  0  0
    7.6019    9.0093   -5.2234 C   0  0  0  0  0  0  0  0  0  0  0  0
    6.2218    8.9541   -4.9075 C   0  0  0  0  0  0  0  0  0  0  0  0
    5.8184    8.2065   -3.7605 C   0  0  0  0  0  0  0  0  0  0  0  0
    4.4227    8.1018   -3.5077 C   0  0  0  0  0  0  0  0  0  0  0  0
    3.4677    8.7450   -4.2972 C   0  0  0  0  0  0  0  0  0  0  0  0
    3.8704    9.4911   -5.3936 C   0  0  0  0  0  0  0  0  0  0  0  0
    5.2286    9.5918   -5.6990 C   0  0  0  0  0  0  0  0  0  0  0  0
    5.6594   10.6565   -7.2239 Br  0  0  0  0  0  0  0  0  0  0  0  0
    0.0038   -0.7727   -1.5287 H   0  0  0  0  0  0  0  0  0  0  0  0
   -0.0387    0.9709   -1.6385 H   0  0  0  0  0  0  0  0  0  0  0  0
    0.4242    0.1853   -0.0963 H   0  0  0  0  0  0  0  0  0  0  0  0
    1.9106   -1.9770   -1.4364 H   0  0  0  0  0  0  0  0  0  0  0  0
    3.1364   -1.1695   -0.4559 H   0  0  0  0  0  0  0  0  0  0  0  0
    3.3276   -1.3166   -2.2283 H   0  0  0  0  0  0  0  0  0  0  0  0
    1.0339    2.5195   -0.5797 H   0  0  0  0  0  0  0  0  0  0  0  0
    2.2939    4.4878   -0.1879 H   0  0  0  0  0  0  0  0  0  0  0  0
    5.8243    2.5359   -1.7077 H   0  0  0  0  0  0  0  0  0  0  0  0
    4.5235    0.5535   -2.1796 H   0  0  0  0  0  0  0  0  0  0  0  0
    5.9714    4.6341   -1.0486 H   0  0  0  0  0  0  0  0  0  0  0  0
    5.4098    7.9623   -0.7846 H   0  0  0  0  0  0  0  0  0  0  0  0
    8.9578    7.2079   -2.7072 H   0  0  0  0  0  0  0  0  0  0  0  0
    9.6244    8.4534   -4.7219 H   0  0  0  0  0  0  0  0  0  0  0  0
    7.9493    9.5224   -6.1193 H   0  0  0  0  0  0  0  0  0  0  0  0
    4.0350    7.5016   -2.6892 H   0  0  0  0  0  0  0  0  0  0  0  0
    2.4106    8.6583   -4.0559 H   0  0  0  0  0  0  0  0  0  0  0  0
    3.1205    9.9829   -6.0084 H   0  0  0  0  0  0  0  0  0  0  0  0
  1  2  1  0  0  0  0
  1 27  1  0  0  0  0
  1 28  1  0  0  0  0
  1 29  1  0  0  0  0
  2  3  1  0  0  0  0
  2  4  1  0  0  0  0
  3 30  1  0  0  0  0
  3 31  1  0  0  0  0
  3 32  1  0  0  0  0
  4  5  2  0  0  0  0
  4  9  1  0  0  0  0
  5  6  1  0  0  0  0
  5 33  1  0  0  0  0
  6  7  2  0  0  0  0
  6 34  1  0  0  0  0
  7  8  1  0  0  0  0
  7 10  1  0  0  0  0
  8  9  2  0  0  0  0
  8 35  1  0  0  0  0
  9 36  1  0  0  0  0
 10 11  1  0  0  0  0
 10 37  1  0  0  0  0
 11 12  2  0  0  0  0
 11 13  1  0  0  0  0
 13 14  1  0  0  0  0
 13 38  1  0  0  0  0
 14 15  2  0  0  0  0
 14 16  1  0  0  0  0
 16 17  2  0  0  0  0
 16 21  1  0  0  0  0
 17 18  1  0  0  0  0
 17 39  1  0  0  0  0
 18 19  2  0  0  0  0
 18 40  1  0  0  0  0
 19 20  1  0  0  0  0
 19 41  1  0  0  0  0
 20 21  2  0  0  0  0
 20 25  1  0  0  0  0
 21 22  1  0  0  0  0
 22 23  2  0  0  0  0
 22 42  1  0  0  0  0
 23 24  1  0  0  0  0
 23 43  1  0  0  0  0
 24 25  2  0  0  0  0
 24 44  1  0  0  0  0
 25 26  1  0  0  0  0
M  END
