
 OpenBabel10072619593D

 50 53  0  0  0  0  0  0  0  0999 V2000
   -6.2717    6.8185    7.2258 C   0  0  0  0  0  0  0  0  0  0  0  0
   -6.1362    7.4563    5.8738 C   0  0  0  0  0  0  0  0  0  0  0  0
   -5.3504    6.8542    4.8769 C   0  0  0  0  0  0  0  0  0  0  0  0
   -5.1954    7.4543    3.6264 C   0  0  0  0  0  0  0  0  0  0  0  0
   -5.8131    8.6889    3.3890 C   0  0  0  0  0  0  0  0  0  0  0  0
   -6.5909    9.2996    4.3748 C   0  0  0  0  0  0  0  0  0  0  0  0
   -6.7502    8.6859    5.6146 C   0  0  0  0  0  0  0  0  0  0  0  0
   -4.3800    6.9423    2.6000 N   0  0  0  0  0  0  0  0  0  0  0  0
   -3.8687    5.6842    2.3579 C   0  0  0  0  0  0  0  0  0  0  0  0
   -4.3608    4.2087    2.9549 S   0  0  0  0  0  0  0  0  0  0  0  0
   -2.8175    5.7096    1.4554 N   0  0  0  0  0  0  0  0  0  0  0  0
   -2.0784    6.8837    1.2762 N   0  0  0  0  0  0  0  0  0  0  0  0
   -1.9666    7.4467    0.0198 C   0  0  0  0  0  0  0  0  0  0  0  0
   -2.4118    6.9604   -1.0099 O   0  0  0  0  0  0  0  0  0  0  0  0
   -1.2644    8.7532    0.0071 C   0  0  0  0  0  0  0  0  0  0  0  0
   -1.7407    9.7415    0.8727 C   0  0  0  0  0  0  0  0  0  0  0  0
   -1.1088   10.9725    0.8936 C   0  0  0  0  0  0  0  0  0  0  0  0
   -0.0504   11.2299    0.0896 N   0  0  0  0  0  0  0  0  0  0  0  0
    0.4017   10.2849   -0.7537 C   0  0  0  0  0  0  0  0  0  0  0  0
    1.4917   10.5898   -1.5582 C   0  0  0  0  0  0  0  0  0  0  0  0
    2.0285    9.6661   -2.4577 C   0  0  0  0  0  0  0  0  0  0  0  0
    1.4638    8.4037   -2.5655 C   0  0  0  0  0  0  0  0  0  0  0  0
    0.3720    8.0717   -1.7661 C   0  0  0  0  0  0  0  0  0  0  0  0
   -0.1748    9.0046   -0.8500 C   0  0  0  0  0  0  0  0  0  0  0  0
   -1.5534   12.0801    1.7640 C   0  0  0  0  0  0  0  0  0  0  0  0
   -2.1198   11.8504    3.0328 C   0  0  0  0  0  0  0  0  0  0  0  0
   -2.5603   12.9076    3.8355 C   0  0  0  0  0  0  0  0  0  0  0  0
   -2.4413   14.2196    3.3882 C   0  0  0  0  0  0  0  0  0  0  0  0
   -1.8726   14.4762    2.1446 C   0  0  0  0  0  0  0  0  0  0  0  0
   -1.4299   13.4178    1.3454 C   0  0  0  0  0  0  0  0  0  0  0  0
   -5.9541    5.7706    7.2060 H   0  0  0  0  0  0  0  0  0  0  0  0
   -7.3155    6.8382    7.5557 H   0  0  0  0  0  0  0  0  0  0  0  0
   -5.6536    7.3525    7.9546 H   0  0  0  0  0  0  0  0  0  0  0  0
   -4.8404    5.9284    5.1197 H   0  0  0  0  0  0  0  0  0  0  0  0
   -5.7106    9.1886    2.4292 H   0  0  0  0  0  0  0  0  0  0  0  0
   -7.0730   10.2533    4.1752 H   0  0  0  0  0  0  0  0  0  0  0  0
   -7.3545    9.1704    6.3784 H   0  0  0  0  0  0  0  0  0  0  0  0
   -4.2372    7.5481    1.8013 H   0  0  0  0  0  0  0  0  0  0  0  0
   -2.3731    4.8316    1.1964 H   0  0  0  0  0  0  0  0  0  0  0  0
   -1.6401    7.2805    2.1036 H   0  0  0  0  0  0  0  0  0  0  0  0
   -2.6158    9.5617    1.4866 H   0  0  0  0  0  0  0  0  0  0  0  0
    1.9410   11.5782   -1.4815 H   0  0  0  0  0  0  0  0  0  0  0  0
    2.8846    9.9375   -3.0698 H   0  0  0  0  0  0  0  0  0  0  0  0
    1.8675    7.6778   -3.2671 H   0  0  0  0  0  0  0  0  0  0  0  0
   -0.0562    7.0760   -1.8691 H   0  0  0  0  0  0  0  0  0  0  0  0
   -2.2121   10.8411    3.4273 H   0  0  0  0  0  0  0  0  0  0  0  0
   -2.9911   12.7037    4.8126 H   0  0  0  0  0  0  0  0  0  0  0  0
   -2.7850   15.0417    4.0106 H   0  0  0  0  0  0  0  0  0  0  0  0
   -1.7703   15.4994    1.7924 H   0  0  0  0  0  0  0  0  0  0  0  0
   -0.9864   13.6431    0.3761 H   0  0  0  0  0  0  0  0  0  0  0  0
  1  2  1  0  0  0  0
  1 31  1  0  0  0  0
  1 32  1  0  0  0  0
  1 33  1  0  0  0  0
  2  3  2  0  0  0  0
  2  7  1  0  0  0  0
  3  4  1  0  0  0  0
  3 34  1  0  0  0  0
  4  5  2  0  0  0  0
  4  8  1  0  0  0  0
  5  6  1  0  0  0  0
  5 35  1  0  0  0  0
  6  7  2  0  0  0  0
  6 36  1  0  0  0  0
  7 37  1  0  0  0  0
  8  9  1  0  0  0  0
  8 38  1  0  0  0  0
  9 10  2  0  0  0  0
  9 11  1  0  0  0  0
 11 12  1  0  0  0  0
 11 39  1  0  0  0  0
 12 13  1  0  0  0  0
 12 40  1  0  0  0  0
 13 14  2  0  0  0  0
 13 15  1  0  0  0  0
 15 16  2  0  0  0  0
 15 24  1  0  0  0  0
 16 17  1  0  0  0  0
 16 41  1  0  0  0  0
 17 18  2  0  0  0  0
 17 25  1  0  0  0  0
 18 19  1  0  0  0  0
 19 20  2  0  0  0  0
 19 24  1  0  0  0  0
 20 21  1  0  0  0  0
 20 42  1  0  0  0  0
 21 22  2  0  0  0  0
 21 43  1  0  0  0  0
 22 23  1  0  0  0  0
 22 44  1  0  0  0  0
 23 24  2  0  0  0  0
 23 45  1  0  0  0  0
 25 26  2  0  0  0  0
 25 30  1  0  0  0  0
 26 27  1  0  0  0  0
 26 46  1  0  0  0  0
 27 28  2  0  0  0  0
 27 47  1  0  0  0  0
 28 29  1  0  0  0  0
 28 48  1  0  0  0  0
 29 30  2  0  0  0  0
 29 49  1  0  0  0  0
 30 50  1  0  0  0  0
M  END
