
 OpenBabel10072619523D

 84 90  0  0  1  0  0  0  0  0999 V2000
    1.9423    1.7903    3.6915 C   0  0  0  0  0  0  0  0  0  0  0  0
    2.5120    1.5386    5.0466 C   0  0  3  0  0  0  0  0  0  0  0  0
    3.9250    1.9518    5.3501 C   0  0  0  0  0  0  0  0  0  0  0  0
    3.5652    0.4854    5.3045 C   0  0  3  0  0  0  0  0  0  0  0  0
    4.0147   -0.3858    4.2083 C   0  0  0  0  0  0  0  0  0  0  0  0
    5.1156   -0.2320    3.4555 C   0  0  0  0  0  0  0  0  0  0  0  0
    5.6319   -1.1553    2.4429 C   0  0  3  0  0  0  0  0  0  0  0  0
    6.0969   -0.5603    1.1402 C   0  0  0  0  0  0  0  0  0  0  0  0
    4.9237   -1.5104    1.1590 C   0  0  3  0  0  0  0  0  0  0  0  0
    3.5506   -1.0469    0.6579 C   0  0  3  0  0  0  0  0  0  0  0  0
    2.5378   -2.0163    0.0952 C   0  0  0  0  0  0  0  0  0  0  0  0
    3.2159   -1.0515   -0.8367 C   0  0  3  0  0  0  0  0  0  0  0  0
    4.2304   -1.5024   -1.8903 C   0  0  3  0  0  0  0  0  0  0  0  0
    4.6252   -0.6025   -3.0341 C   0  0  0  0  0  0  0  0  0  0  0  0
    3.9043   -1.8913   -3.3155 C   0  0  3  0  0  0  0  0  0  0  0  0
    2.4982   -1.9211   -3.9196 C   0  0  3  0  0  0  0  0  0  0  0  0
    1.6954   -3.1942   -4.0069 C   0  0  0  0  0  0  0  0  0  0  0  0
    2.1832   -2.5519   -5.2742 C   0  0  3  0  0  0  0  0  0  0  0  0
    3.3069   -3.0830   -6.0679 C   0  0  0  0  0  0  0  0  0  0  0  0
    3.9351   -4.2619   -5.9295 C   0  0  0  0  0  0  0  0  0  0  0  0
    5.1478   -4.6021   -6.6421 C   0  0  0  0  0  0  0  0  0  0  0  0
    5.9134   -5.6276   -6.2470 C   0  0  0  0  0  0  0  0  0  0  0  0
    7.2280   -5.8832   -6.8690 C   0  0  0  0  0  0  0  0  0  0  0  0
    7.3538   -6.4027   -7.9653 O   0  0  0  0  0  0  0  0  0  0  0  0
    8.2532   -5.5261   -6.0284 N   0  0  0  0  0  0  0  0  0  0  0  0
    9.6483   -5.8029   -6.3158 C   0  0  0  0  0  0  0  0  0  0  0  0
   10.2975   -6.7367   -5.2816 C   0  0  2  0  0  0  0  0  0  0  0  0
    9.6685   -8.1327   -5.2047 C   0  0  2  0  0  0  0  0  0  0  0  0
    8.7820   -8.0487   -3.9684 C   0  0  2  0  0  0  0  0  0  0  0  0
    9.6340   -7.1380   -3.0747 C   0  0  1  0  0  0  0  0  0  0  0  0
   10.1967   -6.1476   -3.9571 O   0  0  0  0  0  0  0  0  0  0  0  0
    8.9187   -6.4635   -2.0019 N   0  0  0  0  0  0  0  0  0  0  0  0
    7.9706   -5.4123   -2.3200 C   0  0  0  0  0  0  0  0  0  0  0  0
    6.9287   -5.2705   -1.2355 C   0  0  0  0  0  0  0  0  0  0  0  0
    7.6178   -5.1042    0.0856 C   0  0  0  0  0  0  0  0  0  0  0  0
    7.1069   -4.4965    1.0223 O   0  0  0  0  0  0  0  0  0  0  0  0
    8.8174   -5.7498    0.2146 N   0  0  0  0  0  0  0  0  0  0  0  0
    9.4385   -6.5331   -0.7229 C   0  0  0  0  0  0  0  0  0  0  0  0
   10.3885   -7.2403   -0.3950 O   0  0  0  0  0  0  0  0  0  0  0  0
    8.5199   -9.3291   -3.4046 O   0  0  0  0  0  0  0  0  0  0  0  0
   10.6640   -9.1511   -4.9719 O   0  0  0  0  0  0  0  0  0  0  0  0
    1.4448    2.7643    3.6773 H   0  0  0  0  0  0  0  0  0  0  0  0
    1.1984    1.0277    3.4419 H   0  0  0  0  0  0  0  0  0  0  0  0
    2.7062    1.7959    2.9078 H   0  0  0  0  0  0  0  0  0  0  0  0
    1.7693    1.7005    5.8199 H   0  0  0  0  0  0  0  0  0  0  0  0
    4.1314    2.3876    6.3224 H   0  0  0  0  0  0  0  0  0  0  0  0
    4.5145    2.3904    4.5540 H   0  0  0  0  0  0  0  0  0  0  0  0
    3.5201   -0.0247    6.2643 H   0  0  0  0  0  0  0  0  0  0  0  0
    3.3949   -1.2635    4.0258 H   0  0  0  0  0  0  0  0  0  0  0  0
    5.7479    0.6313    3.6553 H   0  0  0  0  0  0  0  0  0  0  0  0
    6.2626   -1.9357    2.8671 H   0  0  0  0  0  0  0  0  0  0  0  0
    7.0260   -0.9154    0.7104 H   0  0  0  0  0  0  0  0  0  0  0  0
    5.8932    0.4861    0.9393 H   0  0  0  0  0  0  0  0  0  0  0  0
    5.1561   -2.5282    0.8324 H   0  0  0  0  0  0  0  0  0  0  0  0
    3.1294   -0.2097    1.2156 H   0  0  0  0  0  0  0  0  0  0  0  0
    1.4887   -1.8420    0.3061 H   0  0  0  0  0  0  0  0  0  0  0  0
    2.8076   -3.0642    0.0347 H   0  0  0  0  0  0  0  0  0  0  0  0
    2.5833   -0.2250   -1.1640 H   0  0  0  0  0  0  0  0  0  0  0  0
    5.0443   -2.0982   -1.4719 H   0  0  0  0  0  0  0  0  0  0  0  0
    5.6759   -0.5398   -3.2866 H   0  0  0  0  0  0  0  0  0  0  0  0
    4.0838    0.3261   -3.1660 H   0  0  0  0  0  0  0  0  0  0  0  0
    4.5494   -2.6881   -3.6866 H   0  0  0  0  0  0  0  0  0  0  0  0
    1.9085   -1.0362   -3.6751 H   0  0  0  0  0  0  0  0  0  0  0  0
    0.6344   -3.1278   -3.7867 H   0  0  0  0  0  0  0  0  0  0  0  0
    2.1491   -4.1024   -3.6336 H   0  0  0  0  0  0  0  0  0  0  0  0
    1.4354   -2.0426   -5.8770 H   0  0  0  0  0  0  0  0  0  0  0  0
    3.6848   -2.3896   -6.8182 H   0  0  0  0  0  0  0  0  0  0  0  0
    3.5861   -4.9722   -5.1842 H   0  0  0  0  0  0  0  0  0  0  0  0
    5.4648   -3.9623   -7.4637 H   0  0  0  0  0  0  0  0  0  0  0  0
    5.6515   -6.2715   -5.4156 H   0  0  0  0  0  0  0  0  0  0  0  0
    8.0513   -4.9666   -5.2104 H   0  0  0  0  0  0  0  0  0  0  0  0
   10.1595   -4.8340   -6.2958 H   0  0  0  0  0  0  0  0  0  0  0  0
    9.7520   -6.2270   -7.3199 H   0  0  0  0  0  0  0  0  0  0  0  0
   11.3664   -6.8090   -5.5145 H   0  0  0  0  0  0  0  0  0  0  0  0
    9.1236   -8.4295   -6.1048 H   0  0  0  0  0  0  0  0  0  0  0  0
    7.8237   -7.5855   -4.2178 H   0  0  0  0  0  0  0  0  0  0  0  0
   10.4633   -7.7199   -2.6549 H   0  0  0  0  0  0  0  0  0  0  0  0
    7.4638   -5.6424   -3.2588 H   0  0  0  0  0  0  0  0  0  0  0  0
    8.5348   -4.4805   -2.4474 H   0  0  0  0  0  0  0  0  0  0  0  0
    6.2949   -6.1622   -1.1785 H   0  0  0  0  0  0  0  0  0  0  0  0
    6.2969   -4.3989   -1.4326 H   0  0  0  0  0  0  0  0  0  0  0  0
    9.2273   -5.7580    1.1371 H   0  0  0  0  0  0  0  0  0  0  0  0
    9.2552   -9.9086   -3.6939 H   0  0  0  0  0  0  0  0  0  0  0  0
   11.4437   -8.7544   -4.5409 H   0  0  0  0  0  0  0  0  0  0  0  0
  1  2  1  0  0  0  0
  1 42  1  0  0  0  0
  1 43  1  0  0  0  0
  1 44  1  0  0  0  0
  2  3  1  0  0  0  0
  2  4  1  0  0  0  0
  2 45  1  0  0  0  0
  3  4  1  0  0  0  0
  3 46  1  0  0  0  0
  3 47  1  0  0  0  0
  4  5  1  0  0  0  0
  4 48  1  0  0  0  0
  5  6  2  0  0  0  0
  5 49  1  0  0  0  0
  6  7  1  0  0  0  0
  6 50  1  0  0  0  0
  7  8  1  0  0  0  0
  7  9  1  0  0  0  0
  7 51  1  0  0  0  0
  8  9  1  0  0  0  0
  8 52  1  0  0  0  0
  8 53  1  0  0  0  0
  9 10  1  0  0  0  0
  9 54  1  0  0  0  0
 10 11  1  0  0  0  0
 10 12  1  0  0  0  0
 10 55  1  0  0  0  0
 11 12  1  0  0  0  0
 11 56  1  0  0  0  0
 11 57  1  0  0  0  0
 12 13  1  0  0  0  0
 12 58  1  0  0  0  0
 13 14  1  0  0  0  0
 13 15  1  0  0  0  0
 13 59  1  0  0  0  0
 14 15  1  0  0  0  0
 14 60  1  0  0  0  0
 14 61  1  0  0  0  0
 15 16  1  0  0  0  0
 15 62  1  0  0  0  0
 16 17  1  0  0  0  0
 16 18  1  0  0  0  0
 16 63  1  0  0  0  0
 17 18  1  0  0  0  0
 17 64  1  0  0  0  0
 17 65  1  0  0  0  0
 18 19  1  0  0  0  0
 18 66  1  0  0  0  0
 19 20  2  0  0  0  0
 19 67  1  0  0  0  0
 20 21  1  0  0  0  0
 20 68  1  0  0  0  0
 21 22  2  0  0  0  0
 21 69  1  0  0  0  0
 22 23  1  0  0  0  0
 22 70  1  0  0  0  0
 23 24  2  0  0  0  0
 23 25  1  0  0  0  0
 25 26  1  0  0  0  0
 25 71  1  0  0  0  0
 26 27  1  0  0  0  0
 26 72  1  0  0  0  0
 26 73  1  0  0  0  0
 27 28  1  0  0  0  0
 27 31  1  0  0  0  0
 27 74  1  6  0  0  0
 28 29  1  0  0  0  0
 28 41  1  0  0  0  0
 28 75  1  6  0  0  0
 29 30  1  0  0  0  0
 29 40  1  0  0  0  0
 29 76  1  6  0  0  0
 30 31  1  0  0  0  0
 30 32  1  0  0  0  0
 30 77  1  1  0  0  0
 32 33  1  0  0  0  0
 32 38  1  0  0  0  0
 33 34  1  0  0  0  0
 33 78  1  0  0  0  0
 33 79  1  0  0  0  0
 34 35  1  0  0  0  0
 34 80  1  0  0  0  0
 34 81  1  0  0  0  0
 35 36  2  0  0  0  0
 35 37  1  0  0  0  0
 37 38  1  0  0  0  0
 37 82  1  0  0  0  0
 38 39  2  0  0  0  0
 40 83  1  0  0  0  0
 41 84  1  0  0  0  0
M  END
