
 OpenBabel10072620223D

 25 26  0  0  1  0  0  0  0  0999 V2000
    1.0867    0.1364   -0.5099 C   0  0  0  0  0  0  0  0  0  0  0  0
    2.1682   -0.0009    0.2622 C   0  0  0  0  0  0  0  0  0  0  0  0
    2.8374   -1.1770    0.5320 N   0  0  0  0  0  0  0  0  0  0  0  0
    4.0336   -1.2157    1.3392 C   0  0  3  0  0  0  0  0  0  0  0  0
    4.3264   -2.7011    1.4494 C   0  0  0  0  0  0  0  0  0  0  0  0
    3.5613   -3.3205    0.4156 O   0  0  0  0  0  0  0  0  0  0  0  0
    2.6238   -2.4275   -0.0354 C   0  0  0  0  0  0  0  0  0  0  0  0
    1.7662   -2.7579   -0.8396 O   0  0  0  0  0  0  0  0  0  0  0  0
    3.9350   -0.5562    2.7006 C   0  0  0  0  0  0  0  0  0  0  0  0
    2.8145   -0.7426    3.5281 C   0  0  0  0  0  0  0  0  0  0  0  0
    2.7518   -0.1442    4.7870 C   0  0  0  0  0  0  0  0  0  0  0  0
    3.8085    0.6423    5.2388 C   0  0  0  0  0  0  0  0  0  0  0  0
    4.9297    0.8301    4.4334 C   0  0  0  0  0  0  0  0  0  0  0  0
    4.9949    0.2341    3.1725 C   0  0  0  0  0  0  0  0  0  0  0  0
    0.6328    1.1126   -0.6470 H   0  0  0  0  0  0  0  0  0  0  0  0
    0.6132   -0.6943   -1.0218 H   0  0  0  0  0  0  0  0  0  0  0  0
    2.5729    0.8869    0.7459 H   0  0  0  0  0  0  0  0  0  0  0  0
    4.8190   -0.7316    0.7424 H   0  0  0  0  0  0  0  0  0  0  0  0
    4.0264   -3.1473    2.4041 H   0  0  0  0  0  0  0  0  0  0  0  0
    5.3889   -2.9145    1.2939 H   0  0  0  0  0  0  0  0  0  0  0  0
    1.9757   -1.3512    3.1934 H   0  0  0  0  0  0  0  0  0  0  0  0
    1.8761   -0.2911    5.4144 H   0  0  0  0  0  0  0  0  0  0  0  0
    3.7578    1.1096    6.2189 H   0  0  0  0  0  0  0  0  0  0  0  0
    5.7543    1.4430    4.7889 H   0  0  0  0  0  0  0  0  0  0  0  0
    5.8816    0.3957    2.5626 H   0  0  0  0  0  0  0  0  0  0  0  0
  1  2  2  0  0  0  0
  1 15  1  0  0  0  0
  1 16  1  0  0  0  0
  2  3  1  0  0  0  0
  2 17  1  0  0  0  0
  3  4  1  0  0  0  0
  3  7  1  0  0  0  0
  4  5  1  0  0  0  0
  4  9  1  0  0  0  0
  4 18  1  0  0  0  0
  5  6  1  0  0  0  0
  5 19  1  0  0  0  0
  5 20  1  0  0  0  0
  6  7  1  0  0  0  0
  7  8  2  0  0  0  0
  9 10  2  0  0  0  0
  9 14  1  0  0  0  0
 10 11  1  0  0  0  0
 10 21  1  0  0  0  0
 11 12  2  0  0  0  0
 11 22  1  0  0  0  0
 12 13  1  0  0  0  0
 12 23  1  0  0  0  0
 13 14  2  0  0  0  0
 13 24  1  0  0  0  0
 14 25  1  0  0  0  0
M  END
