
 OpenBabel10072616323D

 38 40  0  0  0  0  0  0  0  0999 V2000
   -0.7831   -0.1588    4.1195 C   0  0  0  0  0  0  0  0  0  0  0  0
    0.1762   -0.8805    4.8314 C   0  0  0  0  0  0  0  0  0  0  0  0
    0.7315   -2.0372    4.2807 C   0  0  0  0  0  0  0  0  0  0  0  0
    0.3294   -2.4716    3.0173 C   0  0  0  0  0  0  0  0  0  0  0  0
   -0.6280   -1.7467    2.3019 C   0  0  0  0  0  0  0  0  0  0  0  0
   -1.1792   -0.5836    2.8499 C   0  0  0  0  0  0  0  0  0  0  0  0
   -0.9252   -2.1236    1.0146 O   0  0  0  0  0  0  0  0  0  0  0  0
   -2.2348   -2.3977    0.6970 C   0  0  0  0  0  0  0  0  0  0  0  0
   -2.5796   -2.1861   -0.6403 C   0  0  0  0  0  0  0  0  0  0  0  0
   -3.8608   -2.4935   -1.0922 C   0  0  0  0  0  0  0  0  0  0  0  0
   -4.7939   -3.0244   -0.1980 C   0  0  0  0  0  0  0  0  0  0  0  0
   -4.4622   -3.2299    1.1453 C   0  0  0  0  0  0  0  0  0  0  0  0
   -3.1716   -2.9304    1.5889 C   0  0  0  0  0  0  0  0  0  0  0  0
   -6.4346   -3.3855   -0.7768 S   0  0  0  0  0  0  0  0  0  0  0  0
   -7.3066   -3.4697    0.3730 O   0  0  0  0  0  0  0  0  0  0  0  0
   -6.7117   -2.4966   -1.8836 O   0  0  0  0  0  0  0  0  0  0  0  0
   -6.2689   -4.9200   -1.4164 N   0  0  0  0  0  0  0  0  0  0  0  0
   -5.9354   -6.0089   -0.5043 C   0  0  0  0  0  0  0  0  0  0  0  0
   -5.9379   -7.2666   -1.2914 C   0  0  0  0  0  0  0  0  0  0  0  0
   -6.9413   -8.0650   -1.8011 C   0  0  0  0  0  0  0  0  0  0  0  0
   -6.2981   -9.1194   -2.4924 C   0  0  0  0  0  0  0  0  0  0  0  0
   -4.9472   -8.8923   -2.3699 C   0  0  0  0  0  0  0  0  0  0  0  0
   -4.7188   -7.7680   -1.6442 O   0  0  0  0  0  0  0  0  0  0  0  0
    1.0259   -3.9131    2.3733 Cl  0  0  0  0  0  0  0  0  0  0  0  0
   -1.2104    0.7452    4.5473 H   0  0  0  0  0  0  0  0  0  0  0  0
    0.5018   -0.5402    5.8119 H   0  0  0  0  0  0  0  0  0  0  0  0
    1.4817   -2.5915    4.8381 H   0  0  0  0  0  0  0  0  0  0  0  0
   -1.9046   -0.0017    2.2870 H   0  0  0  0  0  0  0  0  0  0  0  0
   -1.8438   -1.7811   -1.3312 H   0  0  0  0  0  0  0  0  0  0  0  0
   -4.1198   -2.3132   -2.1328 H   0  0  0  0  0  0  0  0  0  0  0  0
   -5.1956   -3.6264    1.8446 H   0  0  0  0  0  0  0  0  0  0  0  0
   -2.9107   -3.1259    2.6256 H   0  0  0  0  0  0  0  0  0  0  0  0
   -5.8279   -4.9473   -2.3340 H   0  0  0  0  0  0  0  0  0  0  0  0
   -6.6690   -6.0755    0.3050 H   0  0  0  0  0  0  0  0  0  0  0  0
   -4.9419   -5.8549   -0.0751 H   0  0  0  0  0  0  0  0  0  0  0  0
   -8.0038   -7.8954   -1.6928 H   0  0  0  0  0  0  0  0  0  0  0  0
   -6.7609   -9.9376   -3.0253 H   0  0  0  0  0  0  0  0  0  0  0  0
   -4.0642   -9.4075   -2.7214 H   0  0  0  0  0  0  0  0  0  0  0  0
  1  2  2  0  0  0  0
  1  6  1  0  0  0  0
  1 25  1  0  0  0  0
  2  3  1  0  0  0  0
  2 26  1  0  0  0  0
  3  4  2  0  0  0  0
  3 27  1  0  0  0  0
  4  5  1  0  0  0  0
  4 24  1  0  0  0  0
  5  6  2  0  0  0  0
  5  7  1  0  0  0  0
  6 28  1  0  0  0  0
  7  8  1  0  0  0  0
  8  9  2  0  0  0  0
  8 13  1  0  0  0  0
  9 10  1  0  0  0  0
  9 29  1  0  0  0  0
 10 11  2  0  0  0  0
 10 30  1  0  0  0  0
 11 12  1  0  0  0  0
 11 14  1  0  0  0  0
 12 13  2  0  0  0  0
 12 31  1  0  0  0  0
 13 32  1  0  0  0  0
 14 15  2  0  0  0  0
 14 16  2  0  0  0  0
 14 17  1  0  0  0  0
 17 18  1  0  0  0  0
 17 33  1  0  0  0  0
 18 19  1  0  0  0  0
 18 34  1  0  0  0  0
 18 35  1  0  0  0  0
 19 20  2  0  0  0  0
 19 23  1  0  0  0  0
 20 21  1  0  0  0  0
 20 36  1  0  0  0  0
 21 22  2  0  0  0  0
 21 37  1  0  0  0  0
 22 23  1  0  0  0  0
 22 38  1  0  0  0  0
M  END
