
 OpenBabel10072616333D

 46 48  0  0  0  0  0  0  0  0999 V2000
   -0.9872   -0.3634   -2.4720 C   0  0  0  0  0  0  0  0  0  0  0  0
   -0.8615   -0.0233   -1.0289 C   0  0  0  0  0  0  0  0  0  0  0  0
   -0.8954   -0.9007    0.0422 C   0  0  0  0  0  0  0  0  0  0  0  0
   -0.6629   -0.0348    1.5028 S   0  0  0  0  0  0  0  0  0  0  0  0
   -0.5609    1.4456    0.6288 C   0  0  0  0  0  0  0  0  0  0  0  0
   -0.6908    1.3053   -0.6801 N   0  0  0  0  0  0  0  0  0  0  0  0
   -0.3870    2.7444    1.3074 C   0  0  0  0  0  0  0  0  0  0  0  0
    0.0618    2.8723    2.6340 C   0  0  0  0  0  0  0  0  0  0  0  0
    0.1891    4.1304    3.2329 C   0  0  0  0  0  0  0  0  0  0  0  0
   -0.1198    5.2831    2.5146 C   0  0  0  0  0  0  0  0  0  0  0  0
   -0.5504    5.1803    1.1947 C   0  0  0  0  0  0  0  0  0  0  0  0
   -0.6810    3.9233    0.5993 C   0  0  0  0  0  0  0  0  0  0  0  0
   -1.0891   -2.3832    0.0615 C   0  0  0  0  0  0  0  0  0  0  0  0
   -2.5559   -2.7533    0.2959 C   0  0  0  0  0  0  0  0  0  0  0  0
   -2.6884   -4.2164    0.2977 N   0  0  0  0  0  0  0  0  0  0  0  0
   -4.2276   -4.8681    0.1396 S   0  0  0  0  0  0  0  0  0  0  0  0
   -4.1223   -6.2532    0.5398 O   0  0  0  0  0  0  0  0  0  0  0  0
   -5.1625   -3.9568    0.7597 O   0  0  0  0  0  0  0  0  0  0  0  0
   -4.4563   -4.8374   -1.6155 C   0  0  0  0  0  0  0  0  0  0  0  0
   -3.6747   -5.6695   -2.4170 C   0  0  0  0  0  0  0  0  0  0  0  0
   -3.8745   -5.6754   -3.7934 C   0  0  0  0  0  0  0  0  0  0  0  0
   -4.8561   -4.8699   -4.3841 C   0  0  0  0  0  0  0  0  0  0  0  0
   -5.6250   -4.0340   -3.5642 C   0  0  0  0  0  0  0  0  0  0  0  0
   -5.4317   -4.0139   -2.1820 C   0  0  0  0  0  0  0  0  0  0  0  0
   -5.1781   -4.8001   -5.7114 O   0  0  0  0  0  0  0  0  0  0  0  0
   -4.5262   -5.7178   -6.5816 C   0  0  0  0  0  0  0  0  0  0  0  0
   -3.0927   -6.4793   -4.5282 F   0  0  0  0  0  0  0  0  0  0  0  0
   -0.1651   -1.0198   -2.7764 H   0  0  0  0  0  0  0  0  0  0  0  0
   -0.9495    0.5391   -3.0917 H   0  0  0  0  0  0  0  0  0  0  0  0
   -1.9357   -0.8736   -2.6713 H   0  0  0  0  0  0  0  0  0  0  0  0
    0.3250    1.9992    3.2259 H   0  0  0  0  0  0  0  0  0  0  0  0
    0.5361    4.2092    4.2608 H   0  0  0  0  0  0  0  0  0  0  0  0
   -0.0232    6.2596    2.9816 H   0  0  0  0  0  0  0  0  0  0  0  0
   -0.7873    6.0764    0.6263 H   0  0  0  0  0  0  0  0  0  0  0  0
   -1.0197    3.8626   -0.4347 H   0  0  0  0  0  0  0  0  0  0  0  0
   -0.4648   -2.8358    0.8441 H   0  0  0  0  0  0  0  0  0  0  0  0
   -0.7452   -2.8175   -0.8872 H   0  0  0  0  0  0  0  0  0  0  0  0
   -3.1771   -2.3153   -0.4936 H   0  0  0  0  0  0  0  0  0  0  0  0
   -2.8958   -2.3592    1.2610 H   0  0  0  0  0  0  0  0  0  0  0  0
   -2.1239   -4.7484    0.9607 H   0  0  0  0  0  0  0  0  0  0  0  0
   -2.9158   -6.3166   -1.9850 H   0  0  0  0  0  0  0  0  0  0  0  0
   -6.3907   -3.4002   -4.0093 H   0  0  0  0  0  0  0  0  0  0  0  0
   -6.0487   -3.3696   -1.5594 H   0  0  0  0  0  0  0  0  0  0  0  0
   -4.9625   -5.6024   -7.5783 H   0  0  0  0  0  0  0  0  0  0  0  0
   -4.6951   -6.7538   -6.2700 H   0  0  0  0  0  0  0  0  0  0  0  0
   -3.4586   -5.4893   -6.6586 H   0  0  0  0  0  0  0  0  0  0  0  0
  1  2  1  0  0  0  0
  1 28  1  0  0  0  0
  1 29  1  0  0  0  0
  1 30  1  0  0  0  0
  2  3  2  0  0  0  0
  2  6  1  0  0  0  0
  3  4  1  0  0  0  0
  3 13  1  0  0  0  0
  4  5  1  0  0  0  0
  5  6  2  0  0  0  0
  5  7  1  0  0  0  0
  7  8  2  0  0  0  0
  7 12  1  0  0  0  0
  8  9  1  0  0  0  0
  8 31  1  0  0  0  0
  9 10  2  0  0  0  0
  9 32  1  0  0  0  0
 10 11  1  0  0  0  0
 10 33  1  0  0  0  0
 11 12  2  0  0  0  0
 11 34  1  0  0  0  0
 12 35  1  0  0  0  0
 13 14  1  0  0  0  0
 13 36  1  0  0  0  0
 13 37  1  0  0  0  0
 14 15  1  0  0  0  0
 14 38  1  0  0  0  0
 14 39  1  0  0  0  0
 15 16  1  0  0  0  0
 15 40  1  0  0  0  0
 16 17  2  0  0  0  0
 16 18  2  0  0  0  0
 16 19  1  0  0  0  0
 19 20  2  0  0  0  0
 19 24  1  0  0  0  0
 20 21  1  0  0  0  0
 20 41  1  0  0  0  0
 21 22  2  0  0  0  0
 21 27  1  0  0  0  0
 22 23  1  0  0  0  0
 22 25  1  0  0  0  0
 23 24  2  0  0  0  0
 23 42  1  0  0  0  0
 24 43  1  0  0  0  0
 25 26  1  0  0  0  0
 26 44  1  0  0  0  0
 26 45  1  0  0  0  0
 26 46  1  0  0  0  0
M  END
