
 OpenBabel10072620203D

 34 36  0  0  0  0  0  0  0  0999 V2000
   -1.0665   -1.4296   -2.8364 C   0  0  0  0  0  0  0  0  0  0  0  0
   -0.2212   -2.1973   -1.9539 O   0  0  0  0  0  0  0  0  0  0  0  0
    0.6220   -1.2312   -1.5041 C   0  0  0  0  0  0  0  0  0  0  0  0
    0.3451    0.0019   -2.0422 C   0  0  0  0  0  0  0  0  0  0  0  0
   -0.7026   -0.0361   -2.9096 O   0  0  0  0  0  0  0  0  0  0  0  0
    1.0859    1.1237   -1.7252 C   0  0  0  0  0  0  0  0  0  0  0  0
    2.1379    0.9833   -0.8153 C   0  0  0  0  0  0  0  0  0  0  0  0
    2.4315   -0.2948   -0.2867 C   0  0  0  0  0  0  0  0  0  0  0  0
    1.6625   -1.4148   -0.6236 C   0  0  0  0  0  0  0  0  0  0  0  0
    2.9985    2.0391   -0.4418 N   0  0  0  0  0  0  0  0  0  0  0  0
    2.8019    3.4237   -0.4335 C   0  0  0  0  0  0  0  0  0  0  0  0
    1.3247    4.2081   -0.4426 S   0  0  0  0  0  0  0  0  0  0  0  0
    4.0609    4.0327   -0.4161 N   0  0  0  0  0  0  0  0  0  0  0  0
    4.4491    5.3489   -0.0861 C   0  0  0  0  0  0  0  0  0  0  0  0
    3.7420    6.1770    0.7850 C   0  0  0  0  0  0  0  0  0  0  0  0
    4.2089    7.4606    1.0830 C   0  0  0  0  0  0  0  0  0  0  0  0
    5.3988    7.9235    0.5246 C   0  0  0  0  0  0  0  0  0  0  0  0
    6.1427    7.0985   -0.3270 C   0  0  0  0  0  0  0  0  0  0  0  0
    5.6617    5.8085   -0.6166 C   0  0  0  0  0  0  0  0  0  0  0  0
    7.4364    7.5691   -0.9415 C   0  0  0  0  0  0  0  0  0  0  0  0
    7.8218    8.8083   -0.5295 F   0  0  0  0  0  0  0  0  0  0  0  0
    8.4778    6.7391   -0.6534 F   0  0  0  0  0  0  0  0  0  0  0  0
    7.3740    7.6277   -2.3005 F   0  0  0  0  0  0  0  0  0  0  0  0
   -2.1019   -1.5044   -2.4845 H   0  0  0  0  0  0  0  0  0  0  0  0
   -1.0045   -1.8606   -3.8423 H   0  0  0  0  0  0  0  0  0  0  0  0
    0.8521    2.0589   -2.2167 H   0  0  0  0  0  0  0  0  0  0  0  0
    3.2565   -0.4277    0.4093 H   0  0  0  0  0  0  0  0  0  0  0  0
    1.8784   -2.3931   -0.2097 H   0  0  0  0  0  0  0  0  0  0  0  0
    3.8183    1.7578    0.0823 H   0  0  0  0  0  0  0  0  0  0  0  0
    4.7554    3.4947   -0.9206 H   0  0  0  0  0  0  0  0  0  0  0  0
    2.8360    5.8418    1.2795 H   0  0  0  0  0  0  0  0  0  0  0  0
    3.6412    8.0958    1.7595 H   0  0  0  0  0  0  0  0  0  0  0  0
    5.7444    8.9282    0.7640 H   0  0  0  0  0  0  0  0  0  0  0  0
    6.2421    5.1736   -1.2847 H   0  0  0  0  0  0  0  0  0  0  0  0
  1  2  1  0  0  0  0
  1  5  1  0  0  0  0
  1 24  1  0  0  0  0
  1 25  1  0  0  0  0
  2  3  1  0  0  0  0
  3  4  2  0  0  0  0
  3  9  1  0  0  0  0
  4  5  1  0  0  0  0
  4  6  1  0  0  0  0
  6  7  2  0  0  0  0
  6 26  1  0  0  0  0
  7  8  1  0  0  0  0
  7 10  1  0  0  0  0
  8  9  2  0  0  0  0
  8 27  1  0  0  0  0
  9 28  1  0  0  0  0
 10 11  1  0  0  0  0
 10 29  1  0  0  0  0
 11 12  2  0  0  0  0
 11 13  1  0  0  0  0
 13 14  1  0  0  0  0
 13 30  1  0  0  0  0
 14 15  2  0  0  0  0
 14 19  1  0  0  0  0
 15 16  1  0  0  0  0
 15 31  1  0  0  0  0
 16 17  2  0  0  0  0
 16 32  1  0  0  0  0
 17 18  1  0  0  0  0
 17 33  1  0  0  0  0
 18 19  2  0  0  0  0
 18 20  1  0  0  0  0
 19 34  1  0  0  0  0
 20 21  1  0  0  0  0
 20 22  1  0  0  0  0
 20 23  1  0  0  0  0
M  END
