
 OpenBabel10072619573D

 40 42  0  0  0  0  0  0  0  0999 V2000
    2.3825   -1.6485    2.6346 C   0  0  0  0  0  0  0  0  0  0  0  0
    2.2562   -2.7524    1.7333 O   0  0  0  0  0  0  0  0  0  0  0  0
    3.1821   -2.6897    0.7183 C   0  0  0  0  0  0  0  0  0  0  0  0
    2.7089   -2.5740   -0.6018 C   0  0  0  0  0  0  0  0  0  0  0  0
    3.6322   -2.4612   -1.6446 C   0  0  0  0  0  0  0  0  0  0  0  0
    5.0056   -2.4923   -1.3791 C   0  0  0  0  0  0  0  0  0  0  0  0
    5.4593   -2.6636   -0.0661 C   0  0  0  0  0  0  0  0  0  0  0  0
    4.5507   -2.7587    0.9941 C   0  0  0  0  0  0  0  0  0  0  0  0
    6.9034   -2.7438    0.1895 N   0  3  0  0  0  0  0  0  0  0  0  0
    7.6665   -2.6931   -0.7862 O   0  0  0  0  0  0  0  0  0  0  0  0
    7.2752   -2.8556    1.3661 O   0  5  0  0  0  0  0  0  0  0  0  0
    1.3132   -2.5832   -0.7869 N   0  0  0  0  0  0  0  0  0  0  0  0
    0.5989   -2.2863   -1.9105 C   0  0  0  0  0  0  0  0  0  0  0  0
    1.0769   -1.8404   -2.9527 O   0  0  0  0  0  0  0  0  0  0  0  0
   -0.7535   -2.4599   -1.8582 N   0  0  0  0  0  0  0  0  0  0  0  0
   -1.4503   -3.0930   -0.8721 C   0  0  0  0  0  0  0  0  0  0  0  0
   -0.9875   -3.6319    0.2313 N   0  0  0  0  0  0  0  0  0  0  0  0
   -2.0396   -4.2220    0.9052 C   0  0  0  0  0  0  0  0  0  0  0  0
   -3.2835   -4.0608    0.3228 C   0  0  0  0  0  0  0  0  0  0  0  0
   -3.1351   -3.2004   -1.1405 S   0  0  0  0  0  0  0  0  0  0  0  0
   -4.5742   -4.5887    0.8599 C   0  0  0  0  0  0  0  0  0  0  0  0
   -4.3791   -5.1044    2.3026 C   0  0  0  0  0  0  0  0  0  0  0  0
   -3.0499   -5.8660    2.4795 C   0  0  0  0  0  0  0  0  0  0  0  0
   -1.8363   -4.9649    2.1838 C   0  0  0  0  0  0  0  0  0  0  0  0
    2.8464   -1.9978    3.5627 H   0  0  0  0  0  0  0  0  0  0  0  0
    1.3791   -1.2784    2.8682 H   0  0  0  0  0  0  0  0  0  0  0  0
    2.9513   -0.8062    2.2208 H   0  0  0  0  0  0  0  0  0  0  0  0
    3.3155   -2.3574   -2.6790 H   0  0  0  0  0  0  0  0  0  0  0  0
    5.7047   -2.3883   -2.2065 H   0  0  0  0  0  0  0  0  0  0  0  0
    4.8881   -2.8850    2.0181 H   0  0  0  0  0  0  0  0  0  0  0  0
    0.7692   -2.7979    0.0492 H   0  0  0  0  0  0  0  0  0  0  0  0
   -1.2622   -2.1571   -2.6750 H   0  0  0  0  0  0  0  0  0  0  0  0
   -4.9341   -5.4084    0.2244 H   0  0  0  0  0  0  0  0  0  0  0  0
   -5.3459   -3.8086    0.8501 H   0  0  0  0  0  0  0  0  0  0  0  0
   -5.2179   -5.7555    2.5741 H   0  0  0  0  0  0  0  0  0  0  0  0
   -4.4017   -4.2537    2.9978 H   0  0  0  0  0  0  0  0  0  0  0  0
   -3.0421   -6.7239    1.7930 H   0  0  0  0  0  0  0  0  0  0  0  0
   -2.9688   -6.2681    3.4965 H   0  0  0  0  0  0  0  0  0  0  0  0
   -0.9283   -5.5767    2.1377 H   0  0  0  0  0  0  0  0  0  0  0  0
   -1.7050   -4.2396    2.9958 H   0  0  0  0  0  0  0  0  0  0  0  0
  1  2  1  0  0  0  0
  1 25  1  0  0  0  0
  1 26  1  0  0  0  0
  1 27  1  0  0  0  0
  2  3  1  0  0  0  0
  3  4  2  0  0  0  0
  3  8  1  0  0  0  0
  4  5  1  0  0  0  0
  4 12  1  0  0  0  0
  5  6  2  0  0  0  0
  5 28  1  0  0  0  0
  6  7  1  0  0  0  0
  6 29  1  0  0  0  0
  7  8  2  0  0  0  0
  7  9  1  0  0  0  0
  8 30  1  0  0  0  0
  9 10  2  0  0  0  0
  9 11  1  0  0  0  0
 12 13  1  0  0  0  0
 12 31  1  0  0  0  0
 13 14  2  0  0  0  0
 13 15  1  0  0  0  0
 15 16  1  0  0  0  0
 15 32  1  0  0  0  0
 16 17  2  0  0  0  0
 16 20  1  0  0  0  0
 17 18  1  0  0  0  0
 18 19  2  0  0  0  0
 18 24  1  0  0  0  0
 19 20  1  0  0  0  0
 19 21  1  0  0  0  0
 21 22  1  0  0  0  0
 21 33  1  0  0  0  0
 21 34  1  0  0  0  0
 22 23  1  0  0  0  0
 22 35  1  0  0  0  0
 22 36  1  0  0  0  0
 23 24  1  0  0  0  0
 23 37  1  0  0  0  0
 23 38  1  0  0  0  0
 24 39  1  0  0  0  0
 24 40  1  0  0  0  0
M  CHG  2   9   1  11  -1
M  END
