
 OpenBabel10072620233D

 23 23  0  0  0  0  0  0  0  0999 V2000
    1.0568   -0.0233   -0.1953 C   0  0  0  0  0  0  0  0  0  0  0  0
    2.8159   -0.1056    0.0161 S   0  0  0  0  0  0  0  0  0  0  0  0
    3.2586    1.1359    0.6212 O   0  0  0  0  0  0  0  0  0  0  0  0
    3.1407   -1.3845    0.6180 O   0  0  0  0  0  0  0  0  0  0  0  0
    3.4267   -0.1315   -1.6546 C   0  0  0  0  0  0  0  0  0  0  0  0
    3.7271    1.0749   -2.2964 C   0  0  0  0  0  0  0  0  0  0  0  0
    4.2206    1.0540   -3.6019 C   0  0  0  0  0  0  0  0  0  0  0  0
    4.4265   -0.1728   -4.2432 C   0  0  0  0  0  0  0  0  0  0  0  0
    4.1286   -1.3789   -3.5985 C   0  0  0  0  0  0  0  0  0  0  0  0
    3.6351   -1.3589   -2.2930 C   0  0  0  0  0  0  0  0  0  0  0  0
    5.0216   -0.1982   -5.9109 S   0  0  0  0  0  0  0  0  0  0  0  0
    4.6370   -1.4453   -6.5288 O   0  0  0  0  0  0  0  0  0  0  0  0
    4.7612    1.0831   -6.5237 O   0  0  0  0  0  0  0  0  0  0  0  0
    6.6813   -0.2799   -5.6853 N   0  0  0  0  0  0  0  0  0  0  0  0
    0.5974   -0.0004    0.7953 H   0  0  0  0  0  0  0  0  0  0  0  0
    0.7211   -0.9081   -0.7394 H   0  0  0  0  0  0  0  0  0  0  0  0
    0.8053    0.8877   -0.7416 H   0  0  0  0  0  0  0  0  0  0  0  0
    3.5864    2.0280   -1.7897 H   0  0  0  0  0  0  0  0  0  0  0  0
    4.4485    1.9905   -4.1076 H   0  0  0  0  0  0  0  0  0  0  0  0
    4.2851   -2.3312   -4.1018 H   0  0  0  0  0  0  0  0  0  0  0  0
    3.4229   -2.2973   -1.7838 H   0  0  0  0  0  0  0  0  0  0  0  0
    7.0442   -1.1522   -6.0712 H   0  0  0  0  0  0  0  0  0  0  0  0
    7.1279    0.5548   -6.0666 H   0  0  0  0  0  0  0  0  0  0  0  0
  1  2  1  0  0  0  0
  1 15  1  0  0  0  0
  1 16  1  0  0  0  0
  1 17  1  0  0  0  0
  2  3  2  0  0  0  0
  2  4  2  0  0  0  0
  2  5  1  0  0  0  0
  5  6  2  0  0  0  0
  5 10  1  0  0  0  0
  6  7  1  0  0  0  0
  6 18  1  0  0  0  0
  7  8  2  0  0  0  0
  7 19  1  0  0  0  0
  8  9  1  0  0  0  0
  8 11  1  0  0  0  0
  9 10  2  0  0  0  0
  9 20  1  0  0  0  0
 10 21  1  0  0  0  0
 11 12  2  0  0  0  0
 11 13  2  0  0  0  0
 11 14  1  0  0  0  0
 14 22  1  0  0  0  0
 14 23  1  0  0  0  0
M  END
