
 OpenBabel10072616323D

 51 52  0  0  1  0  0  0  0  0999 V2000
    4.3753   -2.4809   -7.6148 C   0  0  0  0  0  0  0  0  0  0  0  0
    5.0216   -3.7583   -7.0910 C   0  0  0  0  0  0  0  0  0  0  0  0
    4.5565   -4.2269   -5.6816 C   0  0  0  0  0  0  0  0  0  0  0  0
    3.0291   -4.3811   -5.6790 C   0  0  0  0  0  0  0  0  0  0  0  0
    5.1991   -5.6018   -5.4185 C   0  0  0  0  0  0  0  0  0  0  0  0
    4.9548   -3.2156   -4.6643 N   0  0  0  0  0  0  0  0  0  0  0  0
    5.5545   -3.5107   -3.4659 C   0  0  0  0  0  0  0  0  0  0  0  0
    4.9966   -3.7642   -2.3312 N   0  0  0  0  0  0  0  0  0  0  0  0
    3.5474   -3.6642   -2.1487 C   0  0  2  0  0  0  0  0  0  0  0  0
    3.2134   -2.3322   -1.4369 C   0  0  2  0  0  0  0  0  0  0  0  0
    3.4016   -2.4294    0.0979 C   0  0  0  0  0  0  0  0  0  0  0  0
    2.5934   -3.4861    0.6553 O   0  0  0  0  0  0  0  0  0  0  0  0
    2.5836   -4.6730   -0.0230 C   0  0  0  0  0  0  0  0  0  0  0  0
    3.0208   -4.8310   -1.3409 C   0  0  0  0  0  0  0  0  0  0  0  0
    2.9454   -6.1075   -1.9260 C   0  0  0  0  0  0  0  0  0  0  0  0
    2.4127   -7.1948   -1.2242 C   0  0  0  0  0  0  0  0  0  0  0  0
    1.9616   -7.0158    0.0838 C   0  0  0  0  0  0  0  0  0  0  0  0
    2.0493   -5.7565    0.6799 C   0  0  0  0  0  0  0  0  0  0  0  0
    2.3253   -8.4811   -1.8531 C   0  0  0  0  0  0  0  0  0  0  0  0
    2.2563   -9.5180   -2.3679 N   0  0  0  0  0  0  0  0  0  0  0  0
    4.8638   -2.6358    0.5289 C   0  0  0  0  0  0  0  0  0  0  0  0
    2.9067   -1.1366    0.7760 C   0  0  0  0  0  0  0  0  0  0  0  0
    1.8549   -1.9564   -1.7567 O   0  0  0  0  0  0  0  0  0  0  0  0
    6.9097   -3.3979   -3.4108 N   0  0  0  0  0  0  0  0  0  0  0  0
    7.7700   -3.4367   -4.5528 C   0  0  0  0  0  0  0  0  0  0  0  0
    8.4780   -3.4554   -5.4663 N   0  0  0  0  0  0  0  0  0  0  0  0
    4.7913   -2.2398   -8.5979 H   0  0  0  0  0  0  0  0  0  0  0  0
    4.5649   -1.6286   -6.9578 H   0  0  0  0  0  0  0  0  0  0  0  0
    3.2944   -2.5904   -7.7369 H   0  0  0  0  0  0  0  0  0  0  0  0
    6.1073   -3.6095   -7.0910 H   0  0  0  0  0  0  0  0  0  0  0  0
    4.8201   -4.5552   -7.8199 H   0  0  0  0  0  0  0  0  0  0  0  0
    2.6830   -4.9224   -6.5666 H   0  0  0  0  0  0  0  0  0  0  0  0
    2.5249   -3.4101   -5.6613 H   0  0  0  0  0  0  0  0  0  0  0  0
    2.6788   -4.9462   -4.8130 H   0  0  0  0  0  0  0  0  0  0  0  0
    4.8208   -6.3526   -6.1220 H   0  0  0  0  0  0  0  0  0  0  0  0
    4.9919   -5.9682   -4.4100 H   0  0  0  0  0  0  0  0  0  0  0  0
    6.2870   -5.5742   -5.5355 H   0  0  0  0  0  0  0  0  0  0  0  0
    5.4282   -2.4413   -5.1224 H   0  0  0  0  0  0  0  0  0  0  0  0
    3.0115   -3.6571   -3.0992 H   0  0  0  0  0  0  0  0  0  0  0  0
    3.8369   -1.5247   -1.8388 H   0  0  0  0  0  0  0  0  0  0  0  0
    3.2952   -6.2478   -2.9452 H   0  0  0  0  0  0  0  0  0  0  0  0
    1.5402   -7.8480    0.6448 H   0  0  0  0  0  0  0  0  0  0  0  0
    1.6999   -5.6188    1.7004 H   0  0  0  0  0  0  0  0  0  0  0  0
    5.2482   -3.6205    0.2492 H   0  0  0  0  0  0  0  0  0  0  0  0
    4.9557   -2.5862    1.6212 H   0  0  0  0  0  0  0  0  0  0  0  0
    5.5175   -1.8698    0.0996 H   0  0  0  0  0  0  0  0  0  0  0  0
    1.8347   -0.9829    0.6131 H   0  0  0  0  0  0  0  0  0  0  0  0
    3.4459   -0.2568    0.4086 H   0  0  0  0  0  0  0  0  0  0  0  0
    3.0395   -1.1904    1.8646 H   0  0  0  0  0  0  0  0  0  0  0  0
    1.2724   -2.5470   -1.2432 H   0  0  0  0  0  0  0  0  0  0  0  0
    7.2940   -3.6971   -2.5251 H   0  0  0  0  0  0  0  0  0  0  0  0
  1  2  1  0  0  0  0
  1 27  1  0  0  0  0
  1 28  1  0  0  0  0
  1 29  1  0  0  0  0
  2  3  1  0  0  0  0
  2 30  1  0  0  0  0
  2 31  1  0  0  0  0
  3  4  1  0  0  0  0
  3  5  1  0  0  0  0
  3  6  1  0  0  0  0
  4 32  1  0  0  0  0
  4 33  1  0  0  0  0
  4 34  1  0  0  0  0
  5 35  1  0  0  0  0
  5 36  1  0  0  0  0
  5 37  1  0  0  0  0
  6  7  1  0  0  0  0
  6 38  1  0  0  0  0
  7  8  2  3  0  0  0
  7 24  1  0  0  0  0
  8  9  1  0  0  0  0
  9 10  1  0  0  0  0
  9 14  1  0  0  0  0
  9 39  1  6  0  0  0
 10 11  1  0  0  0  0
 10 23  1  0  0  0  0
 10 40  1  6  0  0  0
 11 12  1  0  0  0  0
 11 21  1  0  0  0  0
 11 22  1  0  0  0  0
 12 13  1  0  0  0  0
 13 14  2  0  0  0  0
 13 18  1  0  0  0  0
 14 15  1  0  0  0  0
 15 16  2  0  0  0  0
 15 41  1  0  0  0  0
 16 17  1  0  0  0  0
 16 19  1  0  0  0  0
 17 18  2  0  0  0  0
 17 42  1  0  0  0  0
 18 43  1  0  0  0  0
 19 20  3  0  0  0  0
 21 44  1  0  0  0  0
 21 45  1  0  0  0  0
 21 46  1  0  0  0  0
 22 47  1  0  0  0  0
 22 48  1  0  0  0  0
 22 49  1  0  0  0  0
 23 50  1  0  0  0  0
 24 25  1  0  0  0  0
 24 51  1  0  0  0  0
 25 26  3  0  0  0  0
M  END
