
 OpenBabel10072620153D

 37 38  0  0  0  0  0  0  0  0999 V2000
   -0.5420    1.2345   -2.2915 C   0  0  0  0  0  0  0  0  0  0  0  0
   -0.1912    0.7194   -0.9396 C   0  0  0  0  0  0  0  0  0  0  0  0
   -0.5576    1.1172    0.3324 C   0  0  0  0  0  0  0  0  0  0  0  0
    0.2343    0.3089    1.2018 C   0  0  0  0  0  0  0  0  0  0  0  0
    0.9843   -0.5642    0.5282 N   0  0  0  0  0  0  0  0  0  0  0  0
    0.7032   -0.3105   -0.7590 N   0  0  0  0  0  0  0  0  0  0  0  0
    1.3549   -1.1143   -1.7683 C   0  0  0  0  0  0  0  0  0  0  0  0
    0.2654    0.3036    2.6845 C   0  0  0  0  0  0  0  0  0  0  0  0
   -1.4571    2.0797    0.7960 N   0  0  0  0  0  0  0  0  0  0  0  0
   -2.9409    2.5631    0.1718 S   0  0  0  0  0  0  0  0  0  0  0  0
   -3.2964    3.6767    1.0304 O   0  0  0  0  0  0  0  0  0  0  0  0
   -2.8665    2.7029   -1.2643 O   0  0  0  0  0  0  0  0  0  0  0  0
   -4.0922    1.2481    0.5291 C   0  0  0  0  0  0  0  0  0  0  0  0
   -5.4725    1.5294    0.5158 C   0  0  0  0  0  0  0  0  0  0  0  0
   -6.3676    0.5214    0.8965 C   0  0  0  0  0  0  0  0  0  0  0  0
   -5.9052   -0.7443    1.2641 C   0  0  0  0  0  0  0  0  0  0  0  0
   -4.5433   -1.0164    1.2382 C   0  0  0  0  0  0  0  0  0  0  0  0
   -3.6323   -0.0294    0.8760 C   0  0  0  0  0  0  0  0  0  0  0  0
   -3.9231   -2.7401    1.7019 Br  0  0  0  0  0  0  0  0  0  0  0  0
   -5.8675    2.7751    0.1112 O   0  0  0  0  0  0  0  0  0  0  0  0
   -7.2618    3.0642    0.0796 C   0  0  0  0  0  0  0  0  0  0  0  0
   -0.5656    2.3295   -2.2939 H   0  0  0  0  0  0  0  0  0  0  0  0
   -1.5155    0.8483   -2.6085 H   0  0  0  0  0  0  0  0  0  0  0  0
    0.1969    0.9413   -3.0463 H   0  0  0  0  0  0  0  0  0  0  0  0
    1.7260   -2.0367   -1.3117 H   0  0  0  0  0  0  0  0  0  0  0  0
    2.1892   -0.5400   -2.1770 H   0  0  0  0  0  0  0  0  0  0  0  0
    0.6335   -1.3679   -2.5482 H   0  0  0  0  0  0  0  0  0  0  0  0
    0.8408    1.1571    3.0537 H   0  0  0  0  0  0  0  0  0  0  0  0
    0.7239   -0.6127    3.0698 H   0  0  0  0  0  0  0  0  0  0  0  0
   -0.7469    0.3621    3.0963 H   0  0  0  0  0  0  0  0  0  0  0  0
   -1.3375    2.4432    1.7410 H   0  0  0  0  0  0  0  0  0  0  0  0
   -7.4399    0.6858    0.9124 H   0  0  0  0  0  0  0  0  0  0  0  0
   -6.6188   -1.5081    1.5629 H   0  0  0  0  0  0  0  0  0  0  0  0
   -2.5809   -0.2823    0.8638 H   0  0  0  0  0  0  0  0  0  0  0  0
   -7.3885    4.0911   -0.2780 H   0  0  0  0  0  0  0  0  0  0  0  0
   -7.7006    3.0029    1.0815 H   0  0  0  0  0  0  0  0  0  0  0  0
   -7.7854    2.4049   -0.6208 H   0  0  0  0  0  0  0  0  0  0  0  0
  1  2  1  0  0  0  0
  1 22  1  0  0  0  0
  1 23  1  0  0  0  0
  1 24  1  0  0  0  0
  2  3  2  0  0  0  0
  2  6  1  0  0  0  0
  3  4  1  0  0  0  0
  3  9  1  0  0  0  0
  4  5  2  0  0  0  0
  4  8  1  0  0  0  0
  5  6  1  0  0  0  0
  6  7  1  0  0  0  0
  7 25  1  0  0  0  0
  7 26  1  0  0  0  0
  7 27  1  0  0  0  0
  8 28  1  0  0  0  0
  8 29  1  0  0  0  0
  8 30  1  0  0  0  0
  9 10  1  0  0  0  0
  9 31  1  0  0  0  0
 10 11  2  0  0  0  0
 10 12  2  0  0  0  0
 10 13  1  0  0  0  0
 13 14  2  0  0  0  0
 13 18  1  0  0  0  0
 14 15  1  0  0  0  0
 14 20  1  0  0  0  0
 15 16  2  0  0  0  0
 15 32  1  0  0  0  0
 16 17  1  0  0  0  0
 16 33  1  0  0  0  0
 17 18  2  0  0  0  0
 17 19  1  0  0  0  0
 18 34  1  0  0  0  0
 20 21  1  0  0  0  0
 21 35  1  0  0  0  0
 21 36  1  0  0  0  0
 21 37  1  0  0  0  0
M  END
