
 OpenBabel10072619533D

 31 33  0  0  0  0  0  0  0  0999 V2000
    2.5290   -0.0926   -0.0166 C   0  0  0  0  0  0  0  0  0  0  0  0
    1.0321   -0.0031    0.0186 C   0  0  0  0  0  0  0  0  0  0  0  0
    0.3892    1.2387    0.0600 C   0  0  0  0  0  0  0  0  0  0  0  0
   -1.0064    1.3139    0.1266 C   0  0  0  0  0  0  0  0  0  0  0  0
   -1.7821    0.1492    0.1553 C   0  0  0  0  0  0  0  0  0  0  0  0
   -1.1348   -1.0915    0.1455 C   0  0  0  0  0  0  0  0  0  0  0  0
    0.2593   -1.1674    0.0764 C   0  0  0  0  0  0  0  0  0  0  0  0
   -3.2462    0.1820    0.2630 C   0  0  0  0  0  0  0  0  0  0  0  0
   -4.0301    1.0394   -0.4123 C   0  0  0  0  0  0  0  0  0  0  0  0
   -5.4277    1.0721   -0.3308 N   0  0  0  0  0  0  0  0  0  0  0  0
   -6.2631    1.9417   -1.0377 C   0  0  0  0  0  0  0  0  0  0  0  0
   -6.0259    2.9578   -1.9777 C   0  0  0  0  0  0  0  0  0  0  0  0
   -7.1415    3.6388   -2.4798 C   0  0  0  0  0  0  0  0  0  0  0  0
   -8.4340    3.3181   -2.0627 C   0  0  0  0  0  0  0  0  0  0  0  0
   -8.6511    2.2994   -1.1278 C   0  0  0  0  0  0  0  0  0  0  0  0
   -7.5436    1.6075   -0.6161 C   0  0  0  0  0  0  0  0  0  0  0  0
   -7.4819    0.5907    0.2847 N   0  0  0  0  0  0  0  0  0  0  0  0
   -6.2090    0.2665    0.4510 N   0  0  0  0  0  0  0  0  0  0  0  0
    2.9697    0.8159   -0.4398 H   0  0  0  0  0  0  0  0  0  0  0  0
    2.8514   -0.9315   -0.6424 H   0  0  0  0  0  0  0  0  0  0  0  0
    2.9199   -0.2337    0.9957 H   0  0  0  0  0  0  0  0  0  0  0  0
    0.9701    2.1582    0.0498 H   0  0  0  0  0  0  0  0  0  0  0  0
   -1.4743    2.2939    0.1758 H   0  0  0  0  0  0  0  0  0  0  0  0
   -1.7099   -2.0141    0.1891 H   0  0  0  0  0  0  0  0  0  0  0  0
    0.7378   -2.1444    0.0714 H   0  0  0  0  0  0  0  0  0  0  0  0
   -3.6875   -0.5672    0.9191 H   0  0  0  0  0  0  0  0  0  0  0  0
   -3.5961    1.7675   -1.0868 H   0  0  0  0  0  0  0  0  0  0  0  0
   -5.0259    3.2134   -2.3119 H   0  0  0  0  0  0  0  0  0  0  0  0
   -6.9978    4.4336   -3.2100 H   0  0  0  0  0  0  0  0  0  0  0  0
   -9.2836    3.8632   -2.4680 H   0  0  0  0  0  0  0  0  0  0  0  0
   -9.6534    2.0437   -0.8008 H   0  0  0  0  0  0  0  0  0  0  0  0
  1  2  1  0  0  0  0
  1 19  1  0  0  0  0
  1 20  1  0  0  0  0
  1 21  1  0  0  0  0
  2  3  2  0  0  0  0
  2  7  1  0  0  0  0
  3  4  1  0  0  0  0
  3 22  1  0  0  0  0
  4  5  2  0  0  0  0
  4 23  1  0  0  0  0
  5  6  1  0  0  0  0
  5  8  1  0  0  0  0
  6  7  2  0  0  0  0
  6 24  1  0  0  0  0
  7 25  1  0  0  0  0
  8  9  2  0  0  0  0
  8 26  1  0  0  0  0
  9 10  1  0  0  0  0
  9 27  1  0  0  0  0
 10 11  1  0  0  0  0
 10 18  1  0  0  0  0
 11 12  2  0  0  0  0
 11 16  1  0  0  0  0
 12 13  1  0  0  0  0
 12 28  1  0  0  0  0
 13 14  2  0  0  0  0
 13 29  1  0  0  0  0
 14 15  1  0  0  0  0
 14 30  1  0  0  0  0
 15 16  2  0  0  0  0
 15 31  1  0  0  0  0
 16 17  1  0  0  0  0
 17 18  2  0  0  0  0
M  END
