
 OpenBabel10072619533D

 41 42  0  0  0  0  0  0  0  0999 V2000
   -0.7492    0.4093    1.7248 C   0  0  0  0  0  0  0  0  0  0  0  0
   -0.2112   -0.9928    1.4694 C   0  0  0  0  0  0  0  0  0  0  0  0
    0.9414   -0.9886    0.4686 C   0  0  0  0  0  0  0  0  0  0  0  0
    2.0655   -0.0196    0.8723 C   0  0  0  0  0  0  0  0  0  0  0  0
    1.5033    1.3828    1.1540 C   0  0  0  0  0  0  0  0  0  0  0  0
    0.3587    1.3591    2.1604 C   0  0  0  0  0  0  0  0  0  0  0  0
    3.1388    0.0503   -0.2175 C   0  0  0  0  0  0  0  0  0  0  0  0
    3.5029    1.0998   -0.7462 O   0  0  0  0  0  0  0  0  0  0  0  0
    3.7199   -1.1750   -0.5152 N   0  0  0  0  0  0  0  0  0  0  0  0
    4.5458   -1.5090   -1.5786 C   0  0  0  0  0  0  0  0  0  0  0  0
    5.0022   -3.1140   -1.6611 S   0  0  0  0  0  0  0  0  0  0  0  0
    4.8736   -0.4573   -2.4014 N   0  0  0  0  0  0  0  0  0  0  0  0
    5.5060   -0.3815   -3.6590 C   0  0  0  0  0  0  0  0  0  0  0  0
    5.6839   -1.4577   -4.5309 C   0  0  0  0  0  0  0  0  0  0  0  0
    6.3197   -1.2770   -5.7656 C   0  0  0  0  0  0  0  0  0  0  0  0
    6.7652   -0.0079   -6.1367 C   0  0  0  0  0  0  0  0  0  0  0  0
    6.5839    1.0814   -5.2845 C   0  0  0  0  0  0  0  0  0  0  0  0
    5.9415    0.8926   -4.0585 C   0  0  0  0  0  0  0  0  0  0  0  0
    7.5935    0.2292   -7.6798 S   0  0  0  0  0  0  0  0  0  0  0  0
    8.6451    1.2044   -7.5026 O   0  0  0  0  0  0  0  0  0  0  0  0
    7.8195   -1.0496   -8.3099 O   0  0  0  0  0  0  0  0  0  0  0  0
    6.4113    0.9841   -8.6030 N   0  0  0  0  0  0  0  0  0  0  0  0
   -1.5255    0.3714    2.4963 H   0  0  0  0  0  0  0  0  0  0  0  0
   -1.2252    0.7923    0.8140 H   0  0  0  0  0  0  0  0  0  0  0  0
   -1.0191   -1.6313    1.0945 H   0  0  0  0  0  0  0  0  0  0  0  0
    0.1279   -1.4325    2.4157 H   0  0  0  0  0  0  0  0  0  0  0  0
    0.5609   -0.7186   -0.5256 H   0  0  0  0  0  0  0  0  0  0  0  0
    1.3266   -2.0118    0.3809 H   0  0  0  0  0  0  0  0  0  0  0  0
    2.5509   -0.3893    1.7863 H   0  0  0  0  0  0  0  0  0  0  0  0
    1.1481    1.8379    0.2198 H   0  0  0  0  0  0  0  0  0  0  0  0
    2.3016    2.0333    1.5316 H   0  0  0  0  0  0  0  0  0  0  0  0
   -0.0483    2.3699    2.2774 H   0  0  0  0  0  0  0  0  0  0  0  0
    0.7406    1.0519    3.1411 H   0  0  0  0  0  0  0  0  0  0  0  0
    3.4698   -1.9722    0.0549 H   0  0  0  0  0  0  0  0  0  0  0  0
    4.6517    0.4520   -1.9897 H   0  0  0  0  0  0  0  0  0  0  0  0
    5.3113   -2.4487   -4.3000 H   0  0  0  0  0  0  0  0  0  0  0  0
    6.4508   -2.1311   -6.4268 H   0  0  0  0  0  0  0  0  0  0  0  0
    6.9341    2.0716   -5.5661 H   0  0  0  0  0  0  0  0  0  0  0  0
    5.8044    1.7529   -3.4050 H   0  0  0  0  0  0  0  0  0  0  0  0
    6.7252    1.9180   -8.8670 H   0  0  0  0  0  0  0  0  0  0  0  0
    6.1624    0.3935   -9.3975 H   0  0  0  0  0  0  0  0  0  0  0  0
  1  2  1  0  0  0  0
  1  6  1  0  0  0  0
  1 23  1  0  0  0  0
  1 24  1  0  0  0  0
  2  3  1  0  0  0  0
  2 25  1  0  0  0  0
  2 26  1  0  0  0  0
  3  4  1  0  0  0  0
  3 27  1  0  0  0  0
  3 28  1  0  0  0  0
  4  5  1  0  0  0  0
  4  7  1  0  0  0  0
  4 29  1  0  0  0  0
  5  6  1  0  0  0  0
  5 30  1  0  0  0  0
  5 31  1  0  0  0  0
  6 32  1  0  0  0  0
  6 33  1  0  0  0  0
  7  8  2  0  0  0  0
  7  9  1  0  0  0  0
  9 10  1  0  0  0  0
  9 34  1  0  0  0  0
 10 11  2  0  0  0  0
 10 12  1  0  0  0  0
 12 13  1  0  0  0  0
 12 35  1  0  0  0  0
 13 14  2  0  0  0  0
 13 18  1  0  0  0  0
 14 15  1  0  0  0  0
 14 36  1  0  0  0  0
 15 16  2  0  0  0  0
 15 37  1  0  0  0  0
 16 17  1  0  0  0  0
 16 19  1  0  0  0  0
 17 18  2  0  0  0  0
 17 38  1  0  0  0  0
 18 39  1  0  0  0  0
 19 20  2  0  0  0  0
 19 21  2  0  0  0  0
 19 22  1  0  0  0  0
 22 40  1  0  0  0  0
 22 41  1  0  0  0  0
M  END
