
 OpenBabel10072620223D

 38 39  0  0  0  0  0  0  0  0999 V2000
   -7.8548   -4.7218    0.2103 C   0  0  0  0  0  0  0  0  0  0  0  0
   -6.8319   -3.6235    0.2404 C   0  0  0  0  0  0  0  0  0  0  0  0
   -6.2876   -3.1370   -0.9566 C   0  0  0  0  0  0  0  0  0  0  0  0
   -5.3131   -2.1385   -0.9353 C   0  0  0  0  0  0  0  0  0  0  0  0
   -4.8794   -1.6231    0.2887 C   0  0  0  0  0  0  0  0  0  0  0  0
   -5.3919   -2.1172    1.4905 C   0  0  0  0  0  0  0  0  0  0  0  0
   -6.3666   -3.1177    1.4624 C   0  0  0  0  0  0  0  0  0  0  0  0
   -3.6312   -0.3635    0.3014 S   0  0  0  0  0  0  0  0  0  0  0  0
   -3.1379   -0.1751    1.6470 O   0  0  0  0  0  0  0  0  0  0  0  0
   -2.7174   -0.6571   -0.7853 O   0  0  0  0  0  0  0  0  0  0  0  0
   -4.4409    1.0065   -0.1816 N   0  0  0  0  0  0  0  0  0  0  0  0
   -5.5844    1.5077    0.4296 C   0  0  0  0  0  0  0  0  0  0  0  0
   -6.0718    0.9846    1.4159 O   0  0  0  0  0  0  0  0  0  0  0  0
   -6.0641    2.6065   -0.2351 N   0  0  0  0  0  0  0  0  0  0  0  0
   -7.2668    3.3062   -0.0004 C   0  0  0  0  0  0  0  0  0  0  0  0
   -8.2135    2.9316    0.9592 C   0  0  0  0  0  0  0  0  0  0  0  0
   -9.4015    3.6557    1.1094 C   0  0  0  0  0  0  0  0  0  0  0  0
   -9.6376    4.7672    0.2989 C   0  0  0  0  0  0  0  0  0  0  0  0
   -8.7008    5.1531   -0.6566 C   0  0  0  0  0  0  0  0  0  0  0  0
   -7.5216    4.4226   -0.8067 C   0  0  0  0  0  0  0  0  0  0  0  0
  -10.4018    3.3764    2.0013 O   0  0  0  0  0  0  0  0  0  0  0  0
  -10.2076    2.2523    2.8526 C   0  0  0  0  0  0  0  0  0  0  0  0
   -8.4487   -4.6776   -0.7090 H   0  0  0  0  0  0  0  0  0  0  0  0
   -8.5519   -4.6323    1.0500 H   0  0  0  0  0  0  0  0  0  0  0  0
   -7.3583   -5.6955    0.2617 H   0  0  0  0  0  0  0  0  0  0  0  0
   -6.6198   -3.5370   -1.9122 H   0  0  0  0  0  0  0  0  0  0  0  0
   -4.8959   -1.7755   -1.8712 H   0  0  0  0  0  0  0  0  0  0  0  0
   -5.0513   -1.7207    2.4449 H   0  0  0  0  0  0  0  0  0  0  0  0
   -6.7642   -3.4972    2.4023 H   0  0  0  0  0  0  0  0  0  0  0  0
   -4.1174    1.3434   -1.0774 H   0  0  0  0  0  0  0  0  0  0  0  0
   -5.4795    2.9649   -0.9732 H   0  0  0  0  0  0  0  0  0  0  0  0
   -8.0328    2.0700    1.5879 H   0  0  0  0  0  0  0  0  0  0  0  0
  -10.5590    5.3339    0.4129 H   0  0  0  0  0  0  0  0  0  0  0  0
   -8.8915    6.0198   -1.2841 H   0  0  0  0  0  0  0  0  0  0  0  0
   -6.8108    4.7397   -1.5651 H   0  0  0  0  0  0  0  0  0  0  0  0
  -11.0904    2.1623    3.4922 H   0  0  0  0  0  0  0  0  0  0  0  0
   -9.3387    2.3953    3.5035 H   0  0  0  0  0  0  0  0  0  0  0  0
  -10.1215    1.3267    2.2736 H   0  0  0  0  0  0  0  0  0  0  0  0
  1  2  1  0  0  0  0
  1 23  1  0  0  0  0
  1 24  1  0  0  0  0
  1 25  1  0  0  0  0
  2  3  2  0  0  0  0
  2  7  1  0  0  0  0
  3  4  1  0  0  0  0
  3 26  1  0  0  0  0
  4  5  2  0  0  0  0
  4 27  1  0  0  0  0
  5  6  1  0  0  0  0
  5  8  1  0  0  0  0
  6  7  2  0  0  0  0
  6 28  1  0  0  0  0
  7 29  1  0  0  0  0
  8  9  2  0  0  0  0
  8 10  2  0  0  0  0
  8 11  1  0  0  0  0
 11 12  1  0  0  0  0
 11 30  1  0  0  0  0
 12 13  2  0  0  0  0
 12 14  1  0  0  0  0
 14 15  1  0  0  0  0
 14 31  1  0  0  0  0
 15 16  2  0  0  0  0
 15 20  1  0  0  0  0
 16 17  1  0  0  0  0
 16 32  1  0  0  0  0
 17 18  2  0  0  0  0
 17 21  1  0  0  0  0
 18 19  1  0  0  0  0
 18 33  1  0  0  0  0
 19 20  2  0  0  0  0
 19 34  1  0  0  0  0
 20 35  1  0  0  0  0
 21 22  1  0  0  0  0
 22 36  1  0  0  0  0
 22 37  1  0  0  0  0
 22 38  1  0  0  0  0
M  END
