
 OpenBabel10072619553D

 36 35  0  0  0  0  0  0  0  0999 V2000
    3.6872    1.9128    2.7889 C   0  0  0  0  0  0  0  0  0  0  0  0
    3.9498    0.6499    2.4318 C   0  0  0  0  0  0  0  0  0  0  0  0
    4.6145   -0.2810    3.3672 C   0  0  0  0  0  0  0  0  0  0  0  0
    4.9737   -0.0092    4.5006 O   0  0  0  0  0  0  0  0  0  0  0  0
    4.7508   -1.4725    2.7390 O   0  0  0  0  0  0  0  0  0  0  0  0
    5.3940   -2.5035    3.5103 C   0  0  0  0  0  0  0  0  0  0  0  0
    6.9127   -2.3224    3.5363 C   0  0  0  0  0  0  0  0  0  0  0  0
    7.4331   -2.5119    2.2171 O   0  0  0  0  0  0  0  0  0  0  0  0
    8.8450   -2.3044    2.1247 C   0  0  0  0  0  0  0  0  0  0  0  0
    9.6760   -3.3915    2.8203 C   0  0  0  0  0  0  0  0  0  0  0  0
    9.2839   -4.7234    2.4777 O   0  0  0  0  0  0  0  0  0  0  0  0
    9.6027   -5.0844    1.1305 C   0  0  0  0  0  0  0  0  0  0  0  0
    9.2031   -6.5413    0.8907 C   0  0  0  0  0  0  0  0  0  0  0  0
    9.9959   -7.4447    1.6826 O   0  0  0  0  0  0  0  0  0  0  0  0
   11.2393   -7.6912    1.2067 C   0  0  0  0  0  0  0  0  0  0  0  0
   11.7348   -7.2337    0.1909 O   0  0  0  0  0  0  0  0  0  0  0  0
   11.9058   -8.6196    2.1434 C   0  0  0  0  0  0  0  0  0  0  0  0
   13.1577   -9.0388    1.9219 C   0  0  0  0  0  0  0  0  0  0  0  0
    3.1983    2.5940    2.1011 H   0  0  0  0  0  0  0  0  0  0  0  0
    3.9534    2.2926    3.7716 H   0  0  0  0  0  0  0  0  0  0  0  0
    3.6873    0.2691    1.4523 H   0  0  0  0  0  0  0  0  0  0  0  0
    5.1380   -3.4538    3.0292 H   0  0  0  0  0  0  0  0  0  0  0  0
    4.9828   -2.5255    4.5267 H   0  0  0  0  0  0  0  0  0  0  0  0
    7.3417   -3.0688    4.2109 H   0  0  0  0  0  0  0  0  0  0  0  0
    7.1830   -1.3200    3.8825 H   0  0  0  0  0  0  0  0  0  0  0  0
    9.1023   -1.3140    2.5174 H   0  0  0  0  0  0  0  0  0  0  0  0
    9.0835   -2.2911    1.0566 H   0  0  0  0  0  0  0  0  0  0  0  0
    9.5540   -3.3055    3.9046 H   0  0  0  0  0  0  0  0  0  0  0  0
   10.7429   -3.2521    2.6113 H   0  0  0  0  0  0  0  0  0  0  0  0
   10.6757   -4.9398    0.9700 H   0  0  0  0  0  0  0  0  0  0  0  0
    9.0420   -4.4502    0.4380 H   0  0  0  0  0  0  0  0  0  0  0  0
    9.2833   -6.8019   -0.1714 H   0  0  0  0  0  0  0  0  0  0  0  0
    8.1620   -6.6991    1.1925 H   0  0  0  0  0  0  0  0  0  0  0  0
   11.3425   -8.9428    3.0102 H   0  0  0  0  0  0  0  0  0  0  0  0
   13.7211   -8.7116    1.0524 H   0  0  0  0  0  0  0  0  0  0  0  0
   13.6445   -9.7210    2.6102 H   0  0  0  0  0  0  0  0  0  0  0  0
  1  2  2  0  0  0  0
  1 19  1  0  0  0  0
  1 20  1  0  0  0  0
  2  3  1  0  0  0  0
  2 21  1  0  0  0  0
  3  4  2  0  0  0  0
  3  5  1  0  0  0  0
  5  6  1  0  0  0  0
  6  7  1  0  0  0  0
  6 22  1  0  0  0  0
  6 23  1  0  0  0  0
  7  8  1  0  0  0  0
  7 24  1  0  0  0  0
  7 25  1  0  0  0  0
  8  9  1  0  0  0  0
  9 10  1  0  0  0  0
  9 26  1  0  0  0  0
  9 27  1  0  0  0  0
 10 11  1  0  0  0  0
 10 28  1  0  0  0  0
 10 29  1  0  0  0  0
 11 12  1  0  0  0  0
 12 13  1  0  0  0  0
 12 30  1  0  0  0  0
 12 31  1  0  0  0  0
 13 14  1  0  0  0  0
 13 32  1  0  0  0  0
 13 33  1  0  0  0  0
 14 15  1  0  0  0  0
 15 16  2  0  0  0  0
 15 17  1  0  0  0  0
 17 18  2  0  0  0  0
 17 34  1  0  0  0  0
 18 35  1  0  0  0  0
 18 36  1  0  0  0  0
M  END
