
 OpenBabel10072619593D

 23 22  0  0  0  0  0  0  0  0999 V2000
    1.1337   -0.0574    0.1475 C   0  0  0  0  0  0  0  0  0  0  0  0
    2.5876    0.0481   -0.0029 N   0  0  0  0  0  0  0  0  0  0  0  0
    2.9032    0.7478   -1.2494 C   0  0  0  0  0  0  0  0  0  0  0  0
    3.1623    0.7371    1.1724 C   0  0  0  0  0  0  0  0  0  0  0  0
    4.6988    0.6717    1.2398 C   0  0  0  0  0  0  0  0  0  0  0  0
    5.1459    1.3059    2.4842 N   0  0  0  0  0  0  0  0  0  0  0  0
    6.3867    1.2243    2.7820 C   0  0  0  0  0  0  0  0  0  0  0  0
    7.4049    0.6406    2.1135 N   0  0  0  0  0  0  0  0  0  0  0  0
    6.8413    1.7698    3.9303 N   0  0  0  0  0  0  0  0  0  0  0  0
    0.6991   -0.6057   -0.6959 H   0  0  0  0  0  0  0  0  0  0  0  0
    0.6498    0.9242    0.2067 H   0  0  0  0  0  0  0  0  0  0  0  0
    0.8774   -0.6241    1.0495 H   0  0  0  0  0  0  0  0  0  0  0  0
    2.4353    0.2425   -2.1023 H   0  0  0  0  0  0  0  0  0  0  0  0
    3.9792    0.7363   -1.4483 H   0  0  0  0  0  0  0  0  0  0  0  0
    2.5608    1.7888   -1.2385 H   0  0  0  0  0  0  0  0  0  0  0  0
    2.7802    0.2603    2.0853 H   0  0  0  0  0  0  0  0  0  0  0  0
    2.8334    1.7843    1.2117 H   0  0  0  0  0  0  0  0  0  0  0  0
    5.1378    1.2014    0.3877 H   0  0  0  0  0  0  0  0  0  0  0  0
    5.0138   -0.3787    1.2063 H   0  0  0  0  0  0  0  0  0  0  0  0
    7.1942    0.4157    1.1493 H   0  0  0  0  0  0  0  0  0  0  0  0
    8.2641    1.1736    2.1820 H   0  0  0  0  0  0  0  0  0  0  0  0
    6.0552    2.0595    4.5046 H   0  0  0  0  0  0  0  0  0  0  0  0
    7.4376    1.1329    4.4444 H   0  0  0  0  0  0  0  0  0  0  0  0
  1  2  1  0  0  0  0
  1 10  1  0  0  0  0
  1 11  1  0  0  0  0
  1 12  1  0  0  0  0
  2  3  1  0  0  0  0
  2  4  1  0  0  0  0
  3 13  1  0  0  0  0
  3 14  1  0  0  0  0
  3 15  1  0  0  0  0
  4  5  1  0  0  0  0
  4 16  1  0  0  0  0
  4 17  1  0  0  0  0
  5  6  1  0  0  0  0
  5 18  1  0  0  0  0
  5 19  1  0  0  0  0
  6  7  2  0  0  0  0
  7  8  1  0  0  0  0
  7  9  1  0  0  0  0
  8 20  1  0  0  0  0
  8 21  1  0  0  0  0
  9 22  1  0  0  0  0
  9 23  1  0  0  0  0
M  END
