
 OpenBabel10072620103D

 40 41  0  0  1  0  0  0  0  0999 V2000
    9.1030    1.2373   -3.3606 C   0  0  0  0  0  0  0  0  0  0  0  0
    8.4711    1.1789   -2.0097 C   0  0  0  0  0  0  0  0  0  0  0  0
    7.3997    1.8930   -1.6460 C   0  0  0  0  0  0  0  0  0  0  0  0
    6.8410    1.8130   -0.3847 N   0  0  0  0  0  0  0  0  0  0  0  0
    7.3818    0.9873    0.5962 C   0  0  0  0  0  0  0  0  0  0  0  0
    6.9400    0.8988    1.7399 O   0  0  0  0  0  0  0  0  0  0  0  0
    8.4756    0.2539    0.2171 N   0  0  0  0  0  0  0  0  0  0  0  0
    9.0772    0.2726   -1.0081 C   0  0  0  0  0  0  0  0  0  0  0  0
   10.0577   -0.4152   -1.2645 O   0  0  0  0  0  0  0  0  0  0  0  0
    5.6740    2.6101   -0.0079 C   0  0  1  0  0  0  0  0  0  0  0  0
    6.0231    3.8766    0.7734 C   0  0  0  0  0  0  0  0  0  0  0  0
    5.8864    4.9714   -0.2665 C   0  0  1  0  0  0  0  0  0  0  0  0
    4.7343    4.4357   -1.1171 C   0  0  2  0  0  0  0  0  0  0  0  0
    4.9298    3.0123   -1.1788 O   0  0  0  0  0  0  0  0  0  0  0  0
    4.6846    5.0383   -2.5210 C   0  0  0  0  0  0  0  0  0  0  0  0
    4.3274    6.4147   -2.4695 O   0  0  0  0  0  0  0  0  0  0  0  0
    5.6231    6.2706    0.3169 N   0  0  0  0  0  0  0  0  0  0  0  0
    6.6269    7.0828    0.7686 C   0  0  0  0  0  0  0  0  0  0  0  0
    7.8166    6.7697    0.7510 O   0  0  0  0  0  0  0  0  0  0  0  0
    6.2009    8.3114    1.2587 N   0  0  0  0  0  0  0  0  0  0  0  0
    5.1325    9.0948    0.6611 C   0  0  0  0  0  0  0  0  0  0  0  0
    7.2956    9.1716    1.5728 O   0  0  0  0  0  0  0  0  0  0  0  0
    8.5865    1.9437   -4.0182 H   0  0  0  0  0  0  0  0  0  0  0  0
    9.0777    0.2561   -3.8444 H   0  0  0  0  0  0  0  0  0  0  0  0
   10.1453    1.5619   -3.2817 H   0  0  0  0  0  0  0  0  0  0  0  0
    6.9167    2.5569   -2.3562 H   0  0  0  0  0  0  0  0  0  0  0  0
    8.8768   -0.3588    0.9091 H   0  0  0  0  0  0  0  0  0  0  0  0
    5.0100    1.9752    0.5907 H   0  0  0  0  0  0  0  0  0  0  0  0
    7.0066    3.8583    1.2556 H   0  0  0  0  0  0  0  0  0  0  0  0
    5.2774    4.0246    1.5665 H   0  0  0  0  0  0  0  0  0  0  0  0
    6.8132    5.0223   -0.8542 H   0  0  0  0  0  0  0  0  0  0  0  0
    3.7729    4.6166   -0.6141 H   0  0  0  0  0  0  0  0  0  0  0  0
    3.9441    4.5111   -3.1309 H   0  0  0  0  0  0  0  0  0  0  0  0
    5.6516    4.9388   -3.0266 H   0  0  0  0  0  0  0  0  0  0  0  0
    4.2874    6.7313   -3.3895 H   0  0  0  0  0  0  0  0  0  0  0  0
    4.6985    6.4488    0.6830 H   0  0  0  0  0  0  0  0  0  0  0  0
    4.2547    8.4777    0.4561 H   0  0  0  0  0  0  0  0  0  0  0  0
    5.4854    9.5279   -0.2806 H   0  0  0  0  0  0  0  0  0  0  0  0
    4.8565    9.8983    1.3496 H   0  0  0  0  0  0  0  0  0  0  0  0
    8.0695    8.5933    1.3914 H   0  0  0  0  0  0  0  0  0  0  0  0
  1  2  1  0  0  0  0
  1 23  1  0  0  0  0
  1 24  1  0  0  0  0
  1 25  1  0  0  0  0
  2  3  2  0  0  0  0
  2  8  1  0  0  0  0
  3  4  1  0  0  0  0
  3 26  1  0  0  0  0
  4  5  1  0  0  0  0
  5  6  2  0  0  0  0
  5  7  1  0  0  0  0
  7  8  1  0  0  0  0
  7 27  1  0  0  0  0
  8  9  2  0  0  0  0
 10 11  1  0  0  0  0
 10 14  1  0  0  0  0
 10  4  1  0  0  0  0
 10 28  1  1  0  0  0
 11 12  1  0  0  0  0
 11 29  1  0  0  0  0
 11 30  1  0  0  0  0
 12 13  1  0  0  0  0
 12 17  1  0  0  0  0
 12 31  1  6  0  0  0
 13 14  1  0  0  0  0
 13 15  1  0  0  0  0
 13 32  1  1  0  0  0
 15 16  1  0  0  0  0
 15 33  1  0  0  0  0
 15 34  1  0  0  0  0
 16 35  1  0  0  0  0
 17 18  1  0  0  0  0
 17 36  1  0  0  0  0
 18 19  2  0  0  0  0
 18 20  1  0  0  0  0
 20 21  1  0  0  0  0
 20 22  1  0  0  0  0
 21 37  1  0  0  0  0
 21 38  1  0  0  0  0
 21 39  1  0  0  0  0
 22 40  1  0  0  0  0
M  END
