
 OpenBabel10072616273D

 23 23  0  0  0  0  0  0  0  0999 V2000
    1.0811   -0.0049    0.0542 C   0  0  0  0  0  0  0  0  0  0  0  0
    2.5771    0.0384   -0.0410 C   0  0  0  0  0  0  0  0  0  0  0  0
    3.2360    1.2022   -0.4354 C   0  0  0  0  0  0  0  0  0  0  0  0
    4.6384    1.2411   -0.5360 C   0  0  0  0  0  0  0  0  0  0  0  0
    5.3472    0.1067   -0.2850 N   0  3  0  0  0  0  0  0  0  0  0  0
    4.7232   -1.0269    0.1175 C   0  0  0  0  0  0  0  0  0  0  0  0
    3.3411   -1.0897    0.2311 C   0  0  0  0  0  0  0  0  0  0  0  0
    6.8322    0.0746   -0.3521 C   0  0  0  0  0  0  0  0  0  0  0  0
    7.3506    0.2634    1.0700 C   0  0  0  0  0  0  0  0  0  0  0  0
    7.2850   -0.7763    1.7841 O   0  0  0  0  0  0  0  0  0  0  0  0
    7.7068    1.4376    1.3523 O   0  5  0  0  0  0  0  0  0  0  0  0
    5.3169    2.5236   -0.9258 C   0  0  0  0  0  0  0  0  0  0  0  0
    0.6761    0.9819    0.3025 H   0  0  0  0  0  0  0  0  0  0  0  0
    0.7605   -0.6951    0.8418 H   0  0  0  0  0  0  0  0  0  0  0  0
    0.6549   -0.3316   -0.8992 H   0  0  0  0  0  0  0  0  0  0  0  0
    2.6582    2.1001   -0.6491 H   0  0  0  0  0  0  0  0  0  0  0  0
    5.3525   -1.8790    0.3656 H   0  0  0  0  0  0  0  0  0  0  0  0
    2.8755   -2.0178    0.5538 H   0  0  0  0  0  0  0  0  0  0  0  0
    7.1991    0.8372   -1.0415 H   0  0  0  0  0  0  0  0  0  0  0  0
    7.1299   -0.8986   -0.7592 H   0  0  0  0  0  0  0  0  0  0  0  0
    4.5989    3.3477   -0.9993 H   0  0  0  0  0  0  0  0  0  0  0  0
    5.7958    2.4154   -1.9034 H   0  0  0  0  0  0  0  0  0  0  0  0
    6.0599    2.8129   -0.1793 H   0  0  0  0  0  0  0  0  0  0  0  0
  1  2  1  0  0  0  0
  1 13  1  0  0  0  0
  1 14  1  0  0  0  0
  1 15  1  0  0  0  0
  2  3  2  0  0  0  0
  2  7  1  0  0  0  0
  3  4  1  0  0  0  0
  3 16  1  0  0  0  0
  4  5  2  0  0  0  0
  4 12  1  0  0  0  0
  5  6  1  0  0  0  0
  5  8  1  0  0  0  0
  6  7  2  0  0  0  0
  6 17  1  0  0  0  0
  7 18  1  0  0  0  0
  8  9  1  0  0  0  0
  8 19  1  0  0  0  0
  8 20  1  0  0  0  0
  9 10  2  0  0  0  0
  9 11  1  0  0  0  0
 12 21  1  0  0  0  0
 12 22  1  0  0  0  0
 12 23  1  0  0  0  0
M  CHG  2   5   1  11  -1
M  END
