
 OpenBabel10072620073D

 38 40  0  0  0  0  0  0  0  0999 V2000
   -7.3039   -5.1111   -0.3641 C   0  0  0  0  0  0  0  0  0  0  0  0
   -6.4371   -3.9001   -0.1872 C   0  0  0  0  0  0  0  0  0  0  0  0
   -5.7581   -3.3438   -1.2802 C   0  0  0  0  0  0  0  0  0  0  0  0
   -4.9263   -2.2356   -1.1097 C   0  0  0  0  0  0  0  0  0  0  0  0
   -4.7739   -1.6859    0.1660 C   0  0  0  0  0  0  0  0  0  0  0  0
   -5.4250   -2.2463    1.2671 C   0  0  0  0  0  0  0  0  0  0  0  0
   -6.2547   -3.3515    1.0871 C   0  0  0  0  0  0  0  0  0  0  0  0
   -3.6869   -0.3055    0.4086 S   0  0  0  0  0  0  0  0  0  0  0  0
   -3.3861   -0.1582    1.8119 O   0  0  0  0  0  0  0  0  0  0  0  0
   -2.6207   -0.4158   -0.5689 O   0  0  0  0  0  0  0  0  0  0  0  0
   -4.5797    1.0036   -0.0915 N   0  0  0  0  0  0  0  0  0  0  0  0
   -5.8079    1.3888    0.4328 C   0  0  0  0  0  0  0  0  0  0  0  0
   -6.3585    0.7575    1.3227 O   0  0  0  0  0  0  0  0  0  0  0  0
   -6.2717    2.5113   -0.1792 N   0  0  0  0  0  0  0  0  0  0  0  0
   -7.4979    3.1016   -0.0312 C   0  0  0  0  0  0  0  0  0  0  0  0
   -7.7739    4.2156   -0.6649 N   0  0  0  0  0  0  0  0  0  0  0  0
   -9.0921    4.5678   -0.4427 C   0  0  0  0  0  0  0  0  0  0  0  0
   -9.8102    3.7010    0.3835 C   0  0  0  0  0  0  0  0  0  0  0  0
   -8.7570    2.4359    0.8948 S   0  0  0  0  0  0  0  0  0  0  0  0
  -11.1683    3.9056    0.6855 C   0  0  0  0  0  0  0  0  0  0  0  0
  -11.7958    5.0254    0.1165 C   0  0  0  0  0  0  0  0  0  0  0  0
  -11.0966    5.9167   -0.7045 C   0  0  0  0  0  0  0  0  0  0  0  0
   -9.7437    5.6934   -0.9857 C   0  0  0  0  0  0  0  0  0  0  0  0
  -13.2191    5.2676    0.3913 N   0  3  0  0  0  0  0  0  0  0  0  0
  -13.8652    4.3479    0.9178 O   0  0  0  0  0  0  0  0  0  0  0  0
  -13.6859    6.3684    0.0787 O   0  5  0  0  0  0  0  0  0  0  0  0
   -7.7257   -5.1419   -1.3734 H   0  0  0  0  0  0  0  0  0  0  0  0
   -8.1436   -5.0954    0.3389 H   0  0  0  0  0  0  0  0  0  0  0  0
   -6.7177   -6.0194   -0.1951 H   0  0  0  0  0  0  0  0  0  0  0  0
   -5.8736   -3.7791   -2.2697 H   0  0  0  0  0  0  0  0  0  0  0  0
   -4.3993   -1.8222   -1.9667 H   0  0  0  0  0  0  0  0  0  0  0  0
   -5.3003   -1.8228    2.2613 H   0  0  0  0  0  0  0  0  0  0  0  0
   -6.7580   -3.7802    1.9502 H   0  0  0  0  0  0  0  0  0  0  0  0
   -4.1790    1.4449   -0.9095 H   0  0  0  0  0  0  0  0  0  0  0  0
   -5.6646    3.0108   -0.8071 H   0  0  0  0  0  0  0  0  0  0  0  0
  -11.6972    3.2143    1.3361 H   0  0  0  0  0  0  0  0  0  0  0  0
  -11.5820    6.7903   -1.1348 H   0  0  0  0  0  0  0  0  0  0  0  0
   -9.1889    6.3732   -1.6266 H   0  0  0  0  0  0  0  0  0  0  0  0
  1  2  1  0  0  0  0
  1 27  1  0  0  0  0
  1 28  1  0  0  0  0
  1 29  1  0  0  0  0
  2  3  2  0  0  0  0
  2  7  1  0  0  0  0
  3  4  1  0  0  0  0
  3 30  1  0  0  0  0
  4  5  2  0  0  0  0
  4 31  1  0  0  0  0
  5  6  1  0  0  0  0
  5  8  1  0  0  0  0
  6  7  2  0  0  0  0
  6 32  1  0  0  0  0
  7 33  1  0  0  0  0
  8  9  2  0  0  0  0
  8 10  2  0  0  0  0
  8 11  1  0  0  0  0
 11 12  1  0  0  0  0
 11 34  1  0  0  0  0
 12 13  2  0  0  0  0
 12 14  1  0  0  0  0
 14 15  1  0  0  0  0
 14 35  1  0  0  0  0
 15 16  2  0  0  0  0
 15 19  1  0  0  0  0
 16 17  1  0  0  0  0
 17 18  2  0  0  0  0
 17 23  1  0  0  0  0
 18 19  1  0  0  0  0
 18 20  1  0  0  0  0
 20 21  2  0  0  0  0
 20 36  1  0  0  0  0
 21 22  1  0  0  0  0
 21 24  1  0  0  0  0
 22 23  2  0  0  0  0
 22 37  1  0  0  0  0
 23 38  1  0  0  0  0
 24 25  2  0  0  0  0
 24 26  1  0  0  0  0
M  CHG  2  24   1  26  -1
M  END
