
 OpenBabel10072619423D

 57 60  0  0  0  0  0  0  0  0999 V2000
   -0.8090   -1.7678   -2.8803 C   0  0  0  0  0  0  0  0  0  0  0  0
    0.0768   -0.6175   -2.4756 C   0  0  0  0  0  0  0  0  0  0  0  0
   -0.3367    0.6885   -2.8045 C   0  0  0  0  0  0  0  0  0  0  0  0
    0.4365    1.7971   -2.4632 C   0  0  0  0  0  0  0  0  0  0  0  0
    1.6394    1.6196   -1.7940 C   0  0  0  0  0  0  0  0  0  0  0  0
    2.0674    0.3311   -1.4681 C   0  0  0  0  0  0  0  0  0  0  0  0
    1.3029   -0.8085   -1.7970 C   0  0  0  0  0  0  0  0  0  0  0  0
    1.8126   -2.1452   -1.4564 C   0  0  0  0  0  0  0  0  0  0  0  0
    1.3830   -3.3413   -1.8261 N   0  0  0  0  0  0  0  0  0  0  0  0
    2.2913   -4.2094   -1.2748 C   0  0  0  0  0  0  0  0  0  0  0  0
    3.2354   -3.5008   -0.5584 C   0  0  0  0  0  0  0  0  0  0  0  0
    2.9326   -2.1786   -0.6572 O   0  0  0  0  0  0  0  0  0  0  0  0
    4.2977   -4.0696    0.1219 C   0  0  0  0  0  0  0  0  0  0  0  0
    4.4027   -5.4671    0.0314 C   0  0  0  0  0  0  0  0  0  0  0  0
    3.4951   -6.2391   -0.7068 C   0  0  0  0  0  0  0  0  0  0  0  0
    2.4075   -5.6049   -1.3438 C   0  0  0  0  0  0  0  0  0  0  0  0
    3.5713   -7.6411   -0.8750 N   0  0  0  0  0  0  0  0  0  0  0  0
    4.5479   -8.5724   -0.6077 C   0  0  0  0  0  0  0  0  0  0  0  0
    6.0825   -8.3873    0.0257 S   0  0  0  0  0  0  0  0  0  0  0  0
    4.2160   -9.8717   -0.9632 N   0  0  0  0  0  0  0  0  0  0  0  0
    3.0420  -10.3696   -1.5122 C   0  0  0  0  0  0  0  0  0  0  0  0
    2.0275   -9.7065   -1.6959 O   0  0  0  0  0  0  0  0  0  0  0  0
    3.0606  -11.8201   -1.8149 C   0  0  0  0  0  0  0  0  0  0  0  0
    1.9424  -12.5942   -1.4912 C   0  0  0  0  0  0  0  0  0  0  0  0
    1.9744  -13.9840   -1.6673 C   0  0  0  0  0  0  0  0  0  0  0  0
    3.0985  -14.5901   -2.2698 C   0  0  0  0  0  0  0  0  0  0  0  0
    4.1897  -13.7827   -2.6542 C   0  0  0  0  0  0  0  0  0  0  0  0
    4.1805  -12.4099   -2.3995 C   0  0  0  0  0  0  0  0  0  0  0  0
    5.3547  -14.2311   -3.2280 O   0  0  0  0  0  0  0  0  0  0  0  0
    5.1794  -15.1863   -4.2725 C   0  0  0  0  0  0  0  0  0  0  0  0
    3.2779  -15.9426   -2.4152 O   0  0  0  0  0  0  0  0  0  0  0  0
    2.1271  -16.7365   -2.6685 C   0  0  0  0  0  0  0  0  0  0  0  0
    0.9213  -14.7741   -1.2816 O   0  0  0  0  0  0  0  0  0  0  0  0
    0.2705  -14.4024   -0.0687 C   0  0  0  0  0  0  0  0  0  0  0  0
   -1.7509   -1.4157   -3.3154 H   0  0  0  0  0  0  0  0  0  0  0  0
   -1.0709   -2.3793   -2.0109 H   0  0  0  0  0  0  0  0  0  0  0  0
   -0.3125   -2.3843   -3.6362 H   0  0  0  0  0  0  0  0  0  0  0  0
   -1.2734    0.8494   -3.3347 H   0  0  0  0  0  0  0  0  0  0  0  0
    0.1011    2.7973   -2.7247 H   0  0  0  0  0  0  0  0  0  0  0  0
    2.2501    2.4790   -1.5296 H   0  0  0  0  0  0  0  0  0  0  0  0
    3.0239    0.2245   -0.9593 H   0  0  0  0  0  0  0  0  0  0  0  0
    5.0056   -3.4719    0.6824 H   0  0  0  0  0  0  0  0  0  0  0  0
    5.2173   -5.9164    0.5847 H   0  0  0  0  0  0  0  0  0  0  0  0
    1.6766   -6.1652   -1.9166 H   0  0  0  0  0  0  0  0  0  0  0  0
    2.7586   -8.0487   -1.3438 H   0  0  0  0  0  0  0  0  0  0  0  0
    4.9618  -10.5279   -0.7669 H   0  0  0  0  0  0  0  0  0  0  0  0
    1.0654  -12.1018   -1.0794 H   0  0  0  0  0  0  0  0  0  0  0  0
    5.0436  -11.8157   -2.6915 H   0  0  0  0  0  0  0  0  0  0  0  0
    6.0166  -15.0753   -4.9686 H   0  0  0  0  0  0  0  0  0  0  0  0
    4.2556  -15.0252   -4.8393 H   0  0  0  0  0  0  0  0  0  0  0  0
    5.2232  -16.2020   -3.8703 H   0  0  0  0  0  0  0  0  0  0  0  0
    2.4648  -17.6523   -3.1634 H   0  0  0  0  0  0  0  0  0  0  0  0
    1.4191  -16.2423   -3.3422 H   0  0  0  0  0  0  0  0  0  0  0  0
    1.6552  -17.0352   -1.7282 H   0  0  0  0  0  0  0  0  0  0  0  0
   -0.2989  -15.2703    0.2796 H   0  0  0  0  0  0  0  0  0  0  0  0
   -0.4403  -13.5892   -0.2440 H   0  0  0  0  0  0  0  0  0  0  0  0
    0.9877  -14.1372    0.7163 H   0  0  0  0  0  0  0  0  0  0  0  0
  1  2  1  0  0  0  0
  1 35  1  0  0  0  0
  1 36  1  0  0  0  0
  1 37  1  0  0  0  0
  2  3  2  0  0  0  0
  2  7  1  0  0  0  0
  3  4  1  0  0  0  0
  3 38  1  0  0  0  0
  4  5  2  0  0  0  0
  4 39  1  0  0  0  0
  5  6  1  0  0  0  0
  5 40  1  0  0  0  0
  6  7  2  0  0  0  0
  6 41  1  0  0  0  0
  7  8  1  0  0  0  0
  8  9  2  0  0  0  0
  8 12  1  0  0  0  0
  9 10  1  0  0  0  0
 10 11  2  0  0  0  0
 10 16  1  0  0  0  0
 11 12  1  0  0  0  0
 11 13  1  0  0  0  0
 13 14  2  0  0  0  0
 13 42  1  0  0  0  0
 14 15  1  0  0  0  0
 14 43  1  0  0  0  0
 15 16  2  0  0  0  0
 15 17  1  0  0  0  0
 16 44  1  0  0  0  0
 17 18  1  0  0  0  0
 17 45  1  0  0  0  0
 18 19  2  0  0  0  0
 18 20  1  0  0  0  0
 20 21  1  0  0  0  0
 20 46  1  0  0  0  0
 21 22  2  0  0  0  0
 21 23  1  0  0  0  0
 23 24  2  0  0  0  0
 23 28  1  0  0  0  0
 24 25  1  0  0  0  0
 24 47  1  0  0  0  0
 25 26  2  0  0  0  0
 25 33  1  0  0  0  0
 26 27  1  0  0  0  0
 26 31  1  0  0  0  0
 27 28  2  0  0  0  0
 27 29  1  0  0  0  0
 28 48  1  0  0  0  0
 29 30  1  0  0  0  0
 30 49  1  0  0  0  0
 30 50  1  0  0  0  0
 30 51  1  0  0  0  0
 31 32  1  0  0  0  0
 32 52  1  0  0  0  0
 32 53  1  0  0  0  0
 32 54  1  0  0  0  0
 33 34  1  0  0  0  0
 34 55  1  0  0  0  0
 34 56  1  0  0  0  0
 34 57  1  0  0  0  0
M  END
