
 OpenBabel10072616323D

 26 27  0  0  0  0  0  0  0  0999 V2000
    1.6814   -0.5481   -0.9489 C   0  0  0  0  0  0  0  0  0  0  0  0
    0.2917   -0.4075   -0.9232 C   0  0  0  0  0  0  0  0  0  0  0  0
   -0.3197    0.2745    0.1306 C   0  0  0  0  0  0  0  0  0  0  0  0
    0.4445    0.8167    1.1649 C   0  0  0  0  0  0  0  0  0  0  0  0
    1.8340    0.6806    1.1459 C   0  0  0  0  0  0  0  0  0  0  0  0
    2.4455    0.0019    0.0852 C   0  0  0  0  0  0  0  0  0  0  0  0
    4.2182   -0.1741    0.0860 S   0  0  0  0  0  0  0  0  0  0  0  0
    4.5816   -0.6855    1.3925 O   0  0  0  0  0  0  0  0  0  0  0  0
    4.5851   -0.9014   -1.1134 O   0  0  0  0  0  0  0  0  0  0  0  0
    4.7497    1.3480   -0.0536 N   0  0  0  0  0  0  0  0  0  0  0  0
    6.0125    1.6246   -0.0744 C   0  0  0  0  0  0  0  0  0  0  0  0
    6.3660    3.0631   -0.2171 C   0  0  0  0  0  0  0  0  0  0  0  0
    7.6294    3.4916   -0.2640 C   0  0  0  0  0  0  0  0  0  0  0  0
    8.7682    2.5579   -0.1724 C   0  0  0  0  0  0  0  0  0  0  0  0
    9.9131    2.9898   -0.2241 O   0  0  0  0  0  0  0  0  0  0  0  0
    8.4320    1.1207   -0.0182 C   0  0  0  0  0  0  0  0  0  0  0  0
    7.1674    0.6892    0.0262 C   0  0  0  0  0  0  0  0  0  0  0  0
    9.7407    0.0034    0.1034 Cl  0  0  0  0  0  0  0  0  0  0  0  0
   -2.0316    0.4427    0.1577 Cl  0  0  0  0  0  0  0  0  0  0  0  0
    2.1524   -1.0852   -1.7697 H   0  0  0  0  0  0  0  0  0  0  0  0
   -0.3087   -0.8343   -1.7229 H   0  0  0  0  0  0  0  0  0  0  0  0
   -0.0366    1.3405    1.9874 H   0  0  0  0  0  0  0  0  0  0  0  0
    2.4302    1.0940    1.9564 H   0  0  0  0  0  0  0  0  0  0  0  0
    5.5388    3.7631   -0.2867 H   0  0  0  0  0  0  0  0  0  0  0  0
    7.8778    4.5412   -0.3717 H   0  0  0  0  0  0  0  0  0  0  0  0
    6.9653   -0.3702    0.1392 H   0  0  0  0  0  0  0  0  0  0  0  0
  1  2  2  0  0  0  0
  1  6  1  0  0  0  0
  1 20  1  0  0  0  0
  2  3  1  0  0  0  0
  2 21  1  0  0  0  0
  3  4  2  0  0  0  0
  3 19  1  0  0  0  0
  4  5  1  0  0  0  0
  4 22  1  0  0  0  0
  5  6  2  0  0  0  0
  5 23  1  0  0  0  0
  6  7  1  0  0  0  0
  7  8  2  0  0  0  0
  7  9  2  0  0  0  0
  7 10  1  0  0  0  0
 10 11  2  0  0  0  0
 11 12  1  0  0  0  0
 11 17  1  0  0  0  0
 12 13  2  0  0  0  0
 12 24  1  0  0  0  0
 13 14  1  0  0  0  0
 13 25  1  0  0  0  0
 14 15  2  0  0  0  0
 14 16  1  0  0  0  0
 16 17  2  0  0  0  0
 16 18  1  0  0  0  0
 17 26  1  0  0  0  0
M  END
