
 OpenBabel10072620073D

 32 33  0  0  0  0  0  0  0  0999 V2000
    3.7643   -1.8003   -1.9013 C   0  0  0  0  0  0  0  0  0  0  0  0
    2.9989   -0.6286   -1.3775 C   0  0  0  0  0  0  0  0  0  0  0  0
    3.3765    0.6081   -1.5623 N   0  0  0  0  0  0  0  0  0  0  0  0
    2.4111    1.3559   -0.9295 N   0  0  0  0  0  0  0  0  0  0  0  0
    1.4375    0.5268   -0.3767 C   0  0  0  0  0  0  0  0  0  0  0  0
    0.0744    1.0577    0.4011 S   0  0  0  0  0  0  0  0  0  0  0  0
    1.8610   -0.7526   -0.6578 N   0  0  0  0  0  0  0  0  0  0  0  0
    1.1116   -1.8992   -0.4759 N   0  0  0  0  0  0  0  0  0  0  0  0
    1.3107   -2.7671    0.5666 C   0  0  0  0  0  0  0  0  0  0  0  0
    2.5292   -2.6551    1.7103 S   0  0  0  0  0  0  0  0  0  0  0  0
    0.4983   -3.8703    0.6166 N   0  0  0  0  0  0  0  0  0  0  0  0
   -0.7742   -4.1010    0.0597 C   0  0  0  0  0  0  0  0  0  0  0  0
   -1.1942   -5.4298   -0.0616 C   0  0  0  0  0  0  0  0  0  0  0  0
   -2.4371   -5.7378   -0.6288 C   0  0  0  0  0  0  0  0  0  0  0  0
   -3.2848   -4.7141   -1.0478 C   0  0  0  0  0  0  0  0  0  0  0  0
   -2.9018   -3.3880   -0.8529 C   0  0  0  0  0  0  0  0  0  0  0  0
   -1.6516   -3.0796   -0.3078 C   0  0  0  0  0  0  0  0  0  0  0  0
   -4.5149   -4.8865   -1.6176 O   0  0  0  0  0  0  0  0  0  0  0  0
   -4.7225   -6.1310   -2.2754 C   0  0  0  0  0  0  0  0  0  0  0  0
    4.6224   -1.9816   -1.2466 H   0  0  0  0  0  0  0  0  0  0  0  0
    4.1368   -1.5745   -2.9052 H   0  0  0  0  0  0  0  0  0  0  0  0
    3.1512   -2.7028   -1.9452 H   0  0  0  0  0  0  0  0  0  0  0  0
    2.4201    2.3684   -0.9329 H   0  0  0  0  0  0  0  0  0  0  0  0
    0.4964   -2.1504   -1.2407 H   0  0  0  0  0  0  0  0  0  0  0  0
    0.8689   -4.6160    1.1984 H   0  0  0  0  0  0  0  0  0  0  0  0
   -0.5521   -6.2470    0.2586 H   0  0  0  0  0  0  0  0  0  0  0  0
   -2.7208   -6.7817   -0.7159 H   0  0  0  0  0  0  0  0  0  0  0  0
   -3.5849   -2.5857   -1.1246 H   0  0  0  0  0  0  0  0  0  0  0  0
   -1.4231   -2.0338   -0.1256 H   0  0  0  0  0  0  0  0  0  0  0  0
   -5.6277   -6.0378   -2.8826 H   0  0  0  0  0  0  0  0  0  0  0  0
   -4.8852   -6.9334   -1.5496 H   0  0  0  0  0  0  0  0  0  0  0  0
   -3.8942   -6.3737   -2.9504 H   0  0  0  0  0  0  0  0  0  0  0  0
  1  2  1  0  0  0  0
  1 20  1  0  0  0  0
  1 21  1  0  0  0  0
  1 22  1  0  0  0  0
  2  3  2  0  0  0  0
  2  7  1  0  0  0  0
  3  4  1  0  0  0  0
  4  5  1  0  0  0  0
  4 23  1  0  0  0  0
  5  6  2  0  0  0  0
  5  7  1  0  0  0  0
  7  8  1  0  0  0  0
  8  9  1  0  0  0  0
  8 24  1  0  0  0  0
  9 10  2  0  0  0  0
  9 11  1  0  0  0  0
 11 12  1  0  0  0  0
 11 25  1  0  0  0  0
 12 13  2  0  0  0  0
 12 17  1  0  0  0  0
 13 14  1  0  0  0  0
 13 26  1  0  0  0  0
 14 15  2  0  0  0  0
 14 27  1  0  0  0  0
 15 16  1  0  0  0  0
 15 18  1  0  0  0  0
 16 17  2  0  0  0  0
 16 28  1  0  0  0  0
 17 29  1  0  0  0  0
 18 19  1  0  0  0  0
 19 30  1  0  0  0  0
 19 31  1  0  0  0  0
 19 32  1  0  0  0  0
M  END
