
 OpenBabel10072620203D

 49 52  0  0  0  0  0  0  0  0999 V2000
    3.7924   -0.2756    0.7273 C   0  0  0  0  0  0  0  0  0  0  0  0
    3.0503    1.0563    0.6959 C   0  0  0  0  0  0  0  0  0  0  0  0
    2.2379    1.2772   -0.5754 C   0  0  0  0  0  0  0  0  0  0  0  0
    0.8802    0.6098   -0.4917 C   0  0  0  0  0  0  0  0  0  0  0  0
   -0.1558    1.3832   -0.4325 N   0  0  0  0  0  0  0  0  0  0  0  0
   -1.4182    0.8026   -0.3139 C   0  0  0  0  0  0  0  0  0  0  0  0
   -1.6149   -0.5725   -0.2445 C   0  0  0  0  0  0  0  0  0  0  0  0
   -2.9053   -1.1245   -0.1229 C   0  0  0  0  0  0  0  0  0  0  0  0
   -4.0178   -0.2840   -0.0618 C   0  0  0  0  0  0  0  0  0  0  0  0
   -3.8131    1.1036   -0.1360 C   0  0  0  0  0  0  0  0  0  0  0  0
   -2.5284    1.6390   -0.2585 C   0  0  0  0  0  0  0  0  0  0  0  0
   -5.3684   -0.7023   -0.0089 N   0  0  0  0  0  0  0  0  0  0  0  0
   -5.9773   -1.9181    0.2784 C   0  0  0  0  0  0  0  0  0  0  0  0
   -5.3078   -3.2551    1.0171 S   0  0  0  0  0  0  0  0  0  0  0  0
   -7.3057   -1.8627   -0.1259 N   0  0  0  0  0  0  0  0  0  0  0  0
   -8.2990   -2.9261   -0.0478 C   0  0  0  0  0  0  0  0  0  0  0  0
   -9.3874   -2.6783   -1.0650 C   0  0  0  0  0  0  0  0  0  0  0  0
   -9.0698   -2.6898   -2.4366 C   0  0  0  0  0  0  0  0  0  0  0  0
  -10.0527   -2.4410   -3.3935 C   0  0  0  0  0  0  0  0  0  0  0  0
  -11.3549   -2.1875   -2.9841 C   0  0  0  0  0  0  0  0  0  0  0  0
  -11.6909   -2.1780   -1.6342 C   0  0  0  0  0  0  0  0  0  0  0  0
  -10.7081   -2.4191   -0.6706 C   0  0  0  0  0  0  0  0  0  0  0  0
  -12.2990   -1.9399   -3.9019 F   0  0  0  0  0  0  0  0  0  0  0  0
   -0.4131   -1.4241   -0.3140 C   0  0  0  0  0  0  0  0  0  0  0  0
   -0.5408   -2.6437   -0.2486 O   0  0  0  0  0  0  0  0  0  0  0  0
    0.8126   -0.7667   -0.4518 N   0  0  0  0  0  0  0  0  0  0  0  0
    2.0119   -1.5956   -0.5538 C   0  0  0  0  0  0  0  0  0  0  0  0
    2.8991   -1.5120    0.6861 C   0  0  0  0  0  0  0  0  0  0  0  0
    4.3952   -0.3200    1.6432 H   0  0  0  0  0  0  0  0  0  0  0  0
    4.5032   -0.3166   -0.1069 H   0  0  0  0  0  0  0  0  0  0  0  0
    3.8008    1.8528    0.7747 H   0  0  0  0  0  0  0  0  0  0  0  0
    2.4059    1.1391    1.5788 H   0  0  0  0  0  0  0  0  0  0  0  0
    2.7677    0.9424   -1.4714 H   0  0  0  0  0  0  0  0  0  0  0  0
    2.0721    2.3551   -0.6973 H   0  0  0  0  0  0  0  0  0  0  0  0
   -2.9993   -2.2056   -0.1196 H   0  0  0  0  0  0  0  0  0  0  0  0
   -4.6515    1.7964   -0.0916 H   0  0  0  0  0  0  0  0  0  0  0  0
   -2.3917    2.7159   -0.3139 H   0  0  0  0  0  0  0  0  0  0  0  0
   -6.0294    0.0492   -0.1447 H   0  0  0  0  0  0  0  0  0  0  0  0
   -7.6304   -1.0225   -0.5771 H   0  0  0  0  0  0  0  0  0  0  0  0
   -8.6923   -2.9325    0.9749 H   0  0  0  0  0  0  0  0  0  0  0  0
   -7.8408   -3.8995   -0.2425 H   0  0  0  0  0  0  0  0  0  0  0  0
   -8.0484   -2.8905   -2.7594 H   0  0  0  0  0  0  0  0  0  0  0  0
   -9.8121   -2.4454   -4.4518 H   0  0  0  0  0  0  0  0  0  0  0  0
  -12.7177   -1.9824   -1.3431 H   0  0  0  0  0  0  0  0  0  0  0  0
  -10.9791   -2.4049    0.3838 H   0  0  0  0  0  0  0  0  0  0  0  0
    2.5708   -1.2986   -1.4482 H   0  0  0  0  0  0  0  0  0  0  0  0
    1.7273   -2.6439   -0.6983 H   0  0  0  0  0  0  0  0  0  0  0  0
    3.5636   -2.3844    0.6839 H   0  0  0  0  0  0  0  0  0  0  0  0
    2.2963   -1.5728    1.6000 H   0  0  0  0  0  0  0  0  0  0  0  0
  1  2  1  0  0  0  0
  1 28  1  0  0  0  0
  1 29  1  0  0  0  0
  1 30  1  0  0  0  0
  2  3  1  0  0  0  0
  2 31  1  0  0  0  0
  2 32  1  0  0  0  0
  3  4  1  0  0  0  0
  3 33  1  0  0  0  0
  3 34  1  0  0  0  0
  4  5  2  0  0  0  0
  4 26  1  0  0  0  0
  5  6  1  0  0  0  0
  6  7  2  0  0  0  0
  6 11  1  0  0  0  0
  7  8  1  0  0  0  0
  7 24  1  0  0  0  0
  8  9  2  0  0  0  0
  8 35  1  0  0  0  0
  9 10  1  0  0  0  0
  9 12  1  0  0  0  0
 10 11  2  0  0  0  0
 10 36  1  0  0  0  0
 11 37  1  0  0  0  0
 12 13  1  0  0  0  0
 12 38  1  0  0  0  0
 13 14  2  0  0  0  0
 13 15  1  0  0  0  0
 15 16  1  0  0  0  0
 15 39  1  0  0  0  0
 16 17  1  0  0  0  0
 16 40  1  0  0  0  0
 16 41  1  0  0  0  0
 17 18  2  0  0  0  0
 17 22  1  0  0  0  0
 18 19  1  0  0  0  0
 18 42  1  0  0  0  0
 19 20  2  0  0  0  0
 19 43  1  0  0  0  0
 20 21  1  0  0  0  0
 20 23  1  0  0  0  0
 21 22  2  0  0  0  0
 21 44  1  0  0  0  0
 22 45  1  0  0  0  0
 24 25  2  0  0  0  0
 24 26  1  0  0  0  0
 26 27  1  0  0  0  0
 27 28  1  0  0  0  0
 27 46  1  0  0  0  0
 27 47  1  0  0  0  0
 28 48  1  0  0  0  0
 28 49  1  0  0  0  0
M  END
