
 OpenBabel10072620033D

 28 29  0  0  0  0  0  0  0  0999 V2000
   -1.0041    0.9388   -0.5090 C   0  0  0  0  0  0  0  0  0  0  0  0
   -1.5904   -0.1732    0.0866 C   0  0  0  0  0  0  0  0  0  0  0  0
   -0.7780   -1.1369    0.6745 C   0  0  0  0  0  0  0  0  0  0  0  0
    0.6026   -0.9630    0.6605 C   0  0  0  0  0  0  0  0  0  0  0  0
    1.1620    0.1269    0.0719 N   0  3  0  0  0  0  0  0  0  0  0  0
    0.3811    1.0686   -0.5100 C   0  0  0  0  0  0  0  0  0  0  0  0
    2.6458    0.2428   -0.0022 C   0  0  0  0  0  0  0  0  0  0  0  0
    3.1598   -0.6794   -1.0866 C   0  0  0  0  0  0  0  0  0  0  0  0
    2.4386   -1.5460   -1.5772 O   0  0  0  0  0  0  0  0  0  0  0  0
    4.5584   -0.5164   -1.5736 C   0  0  0  0  0  0  0  0  0  0  0  0
    5.5356    0.1618   -0.8327 C   0  0  0  0  0  0  0  0  0  0  0  0
    6.8238    0.3130   -1.3568 C   0  0  0  0  0  0  0  0  0  0  0  0
    7.1313   -0.2110   -2.6075 C   0  0  0  0  0  0  0  0  0  0  0  0
    6.1768   -0.8989   -3.3437 C   0  0  0  0  0  0  0  0  0  0  0  0
    4.8905   -1.0592   -2.8250 C   0  0  0  0  0  0  0  0  0  0  0  0
    8.3607   -0.0459   -3.1079 F   0  0  0  0  0  0  0  0  0  0  0  0
   -1.3357   -2.3072    1.2756 C   0  0  0  0  0  0  0  0  0  0  0  0
   -1.7541   -3.2631    1.7777 N   0  0  0  0  0  0  0  0  0  0  0  0
   -1.6255    1.6923   -0.9899 H   0  0  0  0  0  0  0  0  0  0  0  0
   -2.6744   -0.2905    0.0739 H   0  0  0  0  0  0  0  0  0  0  0  0
    1.2800   -1.7001    1.0846 H   0  0  0  0  0  0  0  0  0  0  0  0
    0.8674    1.9156   -0.9870 H   0  0  0  0  0  0  0  0  0  0  0  0
    3.0484   -0.0409    0.9751 H   0  0  0  0  0  0  0  0  0  0  0  0
    2.8865    1.2868   -0.2241 H   0  0  0  0  0  0  0  0  0  0  0  0
    5.3448    0.5675    0.1557 H   0  0  0  0  0  0  0  0  0  0  0  0
    7.5998    0.8313   -0.7993 H   0  0  0  0  0  0  0  0  0  0  0  0
    6.4384   -1.2966   -4.3203 H   0  0  0  0  0  0  0  0  0  0  0  0
    4.1523   -1.6009   -3.4150 H   0  0  0  0  0  0  0  0  0  0  0  0
  1  2  2  0  0  0  0
  1  6  1  0  0  0  0
  1 19  1  0  0  0  0
  2  3  1  0  0  0  0
  2 20  1  0  0  0  0
  3  4  2  0  0  0  0
  3 17  1  0  0  0  0
  4  5  1  0  0  0  0
  4 21  1  0  0  0  0
  5  6  2  0  0  0  0
  5  7  1  0  0  0  0
  6 22  1  0  0  0  0
  7  8  1  0  0  0  0
  7 23  1  0  0  0  0
  7 24  1  0  0  0  0
  8  9  2  0  0  0  0
  8 10  1  0  0  0  0
 10 11  2  0  0  0  0
 10 15  1  0  0  0  0
 11 12  1  0  0  0  0
 11 25  1  0  0  0  0
 12 13  2  0  0  0  0
 12 26  1  0  0  0  0
 13 14  1  0  0  0  0
 13 16  1  0  0  0  0
 14 15  2  0  0  0  0
 14 27  1  0  0  0  0
 15 28  1  0  0  0  0
 17 18  3  0  0  0  0
M  CHG  1   5   1
M  END
