
 OpenBabel10072616323D

 35 37  0  0  0  0  0  0  0  0999 V2000
    1.2727   -2.8052    0.5110 C   0  0  0  0  0  0  0  0  0  0  0  0
    0.8563   -2.5426    1.8124 C   0  0  0  0  0  0  0  0  0  0  0  0
   -0.2105   -1.6724    2.0412 C   0  0  0  0  0  0  0  0  0  0  0  0
   -0.8770   -1.0565    0.9693 C   0  0  0  0  0  0  0  0  0  0  0  0
   -1.9535   -0.1805    1.1847 C   0  0  0  0  0  0  0  0  0  0  0  0
   -2.6167    0.4037    0.1049 C   0  0  0  0  0  0  0  0  0  0  0  0
   -2.2172    0.1238   -1.1980 C   0  0  0  0  0  0  0  0  0  0  0  0
   -1.1379   -0.7311   -1.4271 C   0  0  0  0  0  0  0  0  0  0  0  0
   -0.4601   -1.3314   -0.3542 C   0  0  0  0  0  0  0  0  0  0  0  0
    0.6190   -2.2043   -0.5660 C   0  0  0  0  0  0  0  0  0  0  0  0
   -3.7528    1.2280    0.3381 N   0  0  0  0  0  0  0  0  0  0  0  0
   -5.2894    0.5797    0.0458 S   0  0  0  0  0  0  0  0  0  0  0  0
   -6.2378    1.5513    0.5505 O   0  0  0  0  0  0  0  0  0  0  0  0
   -5.3648    0.0977   -1.3166 O   0  0  0  0  0  0  0  0  0  0  0  0
   -5.3460   -0.8257    1.1353 C   0  0  0  0  0  0  0  0  0  0  0  0
   -5.7904   -0.6591    2.4486 C   0  0  0  0  0  0  0  0  0  0  0  0
   -5.8552   -1.7662    3.2978 C   0  0  0  0  0  0  0  0  0  0  0  0
   -5.5316   -3.0450    2.8329 C   0  0  0  0  0  0  0  0  0  0  0  0
   -5.0402   -3.1854    1.5306 C   0  0  0  0  0  0  0  0  0  0  0  0
   -4.9744   -2.0873    0.6681 C   0  0  0  0  0  0  0  0  0  0  0  0
   -5.4877   -4.1223    3.7257 N   0  0  0  0  0  0  0  0  0  0  0  0
    2.1050   -3.4809    0.3316 H   0  0  0  0  0  0  0  0  0  0  0  0
    1.3616   -3.0148    2.6510 H   0  0  0  0  0  0  0  0  0  0  0  0
   -0.5219   -1.4853    3.0666 H   0  0  0  0  0  0  0  0  0  0  0  0
   -2.2827    0.0270    2.1991 H   0  0  0  0  0  0  0  0  0  0  0  0
   -2.7385    0.5683   -2.0427 H   0  0  0  0  0  0  0  0  0  0  0  0
   -0.8356   -0.9304   -2.4530 H   0  0  0  0  0  0  0  0  0  0  0  0
    0.9565   -2.4275   -1.5756 H   0  0  0  0  0  0  0  0  0  0  0  0
   -3.7445    1.8086    1.1747 H   0  0  0  0  0  0  0  0  0  0  0  0
   -6.0817    0.3203    2.8201 H   0  0  0  0  0  0  0  0  0  0  0  0
   -6.1722   -1.6235    4.3279 H   0  0  0  0  0  0  0  0  0  0  0  0
   -4.7122   -4.1576    1.1707 H   0  0  0  0  0  0  0  0  0  0  0  0
   -4.6150   -2.2215   -0.3497 H   0  0  0  0  0  0  0  0  0  0  0  0
   -6.1406   -4.0378    4.4993 H   0  0  0  0  0  0  0  0  0  0  0  0
   -5.5518   -5.0300    3.2746 H   0  0  0  0  0  0  0  0  0  0  0  0
  1  2  2  0  0  0  0
  1 10  1  0  0  0  0
  1 22  1  0  0  0  0
  2  3  1  0  0  0  0
  2 23  1  0  0  0  0
  3  4  2  0  0  0  0
  3 24  1  0  0  0  0
  4  5  1  0  0  0  0
  4  9  1  0  0  0  0
  5  6  2  0  0  0  0
  5 25  1  0  0  0  0
  6  7  1  0  0  0  0
  6 11  1  0  0  0  0
  7  8  2  0  0  0  0
  7 26  1  0  0  0  0
  8  9  1  0  0  0  0
  8 27  1  0  0  0  0
  9 10  2  0  0  0  0
 10 28  1  0  0  0  0
 11 12  1  0  0  0  0
 11 29  1  0  0  0  0
 12 13  2  0  0  0  0
 12 14  2  0  0  0  0
 12 15  1  0  0  0  0
 15 16  2  0  0  0  0
 15 20  1  0  0  0  0
 16 17  1  0  0  0  0
 16 30  1  0  0  0  0
 17 18  2  0  0  0  0
 17 31  1  0  0  0  0
 18 19  1  0  0  0  0
 18 21  1  0  0  0  0
 19 20  2  0  0  0  0
 19 32  1  0  0  0  0
 20 33  1  0  0  0  0
 21 34  1  0  0  0  0
 21 35  1  0  0  0  0
M  END
