
 OpenBabel10072620083D

 44 44  0  0  0  0  0  0  0  0999 V2000
    0.2573    2.1337    5.8099 C   0  0  0  0  0  0  0  0  0  0  0  0
    1.7571    2.3509    5.8777 C   0  0  0  0  0  0  0  0  0  0  0  0
    2.3422    2.6914    4.5120 C   0  0  0  0  0  0  0  0  0  0  0  0
    3.7412    2.8913    4.6790 O   0  0  0  0  0  0  0  0  0  0  0  0
    4.4166    3.1353    3.4496 C   0  0  0  0  0  0  0  0  0  0  0  0
    5.9048    3.3259    3.7347 C   0  0  0  0  0  0  0  0  0  0  0  0
    6.4569    2.1696    4.5705 C   0  0  0  0  0  0  0  0  0  0  0  0
    7.8930    2.2729    4.8142 N   0  0  0  0  0  0  0  0  0  0  0  0
    8.5218    2.9530    5.8528 C   0  0  0  0  0  0  0  0  0  0  0  0
    7.7140    3.8963    6.9726 S   0  0  0  0  0  0  0  0  0  0  0  0
    9.8750    2.6455    5.8425 N   0  0  0  0  0  0  0  0  0  0  0  0
   10.9850    3.2408    6.4897 C   0  0  0  0  0  0  0  0  0  0  0  0
   12.1382    2.4449    6.6375 C   0  0  0  0  0  0  0  0  0  0  0  0
   13.3047    2.9845    7.1815 C   0  0  0  0  0  0  0  0  0  0  0  0
   13.3209    4.3061    7.6298 C   0  0  0  0  0  0  0  0  0  0  0  0
   12.1731    5.0998    7.5277 C   0  0  0  0  0  0  0  0  0  0  0  0
   11.0204    4.5699    6.9235 C   0  0  0  0  0  0  0  0  0  0  0  0
   12.1965    6.5236    8.0053 C   0  0  0  0  0  0  0  0  0  0  0  0
   12.0606    1.1441    6.1869 O   0  0  0  0  0  0  0  0  0  0  0  0
   12.6858    0.2024    7.0588 C   0  0  0  0  0  0  0  0  0  0  0  0
   -0.1359    1.8944    6.8033 H   0  0  0  0  0  0  0  0  0  0  0  0
    0.0123    1.3052    5.1372 H   0  0  0  0  0  0  0  0  0  0  0  0
   -0.2528    3.0333    5.4495 H   0  0  0  0  0  0  0  0  0  0  0  0
    2.2462    1.4513    6.2729 H   0  0  0  0  0  0  0  0  0  0  0  0
    1.9870    3.1541    6.5891 H   0  0  0  0  0  0  0  0  0  0  0  0
    1.8897    3.6087    4.1188 H   0  0  0  0  0  0  0  0  0  0  0  0
    2.1657    1.8698    3.8077 H   0  0  0  0  0  0  0  0  0  0  0  0
    4.0040    4.0327    2.9746 H   0  0  0  0  0  0  0  0  0  0  0  0
    4.2722    2.2828    2.7759 H   0  0  0  0  0  0  0  0  0  0  0  0
    6.0478    4.2702    4.2734 H   0  0  0  0  0  0  0  0  0  0  0  0
    6.4512    3.4155    2.7878 H   0  0  0  0  0  0  0  0  0  0  0  0
    6.2968    1.2210    4.0436 H   0  0  0  0  0  0  0  0  0  0  0  0
    5.9414    2.0967    5.5338 H   0  0  0  0  0  0  0  0  0  0  0  0
    8.4934    1.9618    4.0615 H   0  0  0  0  0  0  0  0  0  0  0  0
   10.0877    1.7196    5.4876 H   0  0  0  0  0  0  0  0  0  0  0  0
   14.2166    2.3999    7.2496 H   0  0  0  0  0  0  0  0  0  0  0  0
   14.2373    4.7130    8.0534 H   0  0  0  0  0  0  0  0  0  0  0  0
   10.1703    5.2277    6.7728 H   0  0  0  0  0  0  0  0  0  0  0  0
   12.7652    6.6059    8.9380 H   0  0  0  0  0  0  0  0  0  0  0  0
   11.1869    6.8911    8.2146 H   0  0  0  0  0  0  0  0  0  0  0  0
   12.6550    7.1720    7.2533 H   0  0  0  0  0  0  0  0  0  0  0  0
   12.2713   -0.7839    6.8298 H   0  0  0  0  0  0  0  0  0  0  0  0
   12.4753    0.4162    8.1137 H   0  0  0  0  0  0  0  0  0  0  0  0
   13.7644    0.1638    6.8754 H   0  0  0  0  0  0  0  0  0  0  0  0
  1  2  1  0  0  0  0
  1 21  1  0  0  0  0
  1 22  1  0  0  0  0
  1 23  1  0  0  0  0
  2  3  1  0  0  0  0
  2 24  1  0  0  0  0
  2 25  1  0  0  0  0
  3  4  1  0  0  0  0
  3 26  1  0  0  0  0
  3 27  1  0  0  0  0
  4  5  1  0  0  0  0
  5  6  1  0  0  0  0
  5 28  1  0  0  0  0
  5 29  1  0  0  0  0
  6  7  1  0  0  0  0
  6 30  1  0  0  0  0
  6 31  1  0  0  0  0
  7  8  1  0  0  0  0
  7 32  1  0  0  0  0
  7 33  1  0  0  0  0
  8  9  1  0  0  0  0
  8 34  1  0  0  0  0
  9 10  2  0  0  0  0
  9 11  1  0  0  0  0
 11 12  1  0  0  0  0
 11 35  1  0  0  0  0
 12 13  2  0  0  0  0
 12 17  1  0  0  0  0
 13 14  1  0  0  0  0
 13 19  1  0  0  0  0
 14 15  2  0  0  0  0
 14 36  1  0  0  0  0
 15 16  1  0  0  0  0
 15 37  1  0  0  0  0
 16 17  2  0  0  0  0
 16 18  1  0  0  0  0
 17 38  1  0  0  0  0
 18 39  1  0  0  0  0
 18 40  1  0  0  0  0
 18 41  1  0  0  0  0
 19 20  1  0  0  0  0
 20 42  1  0  0  0  0
 20 43  1  0  0  0  0
 20 44  1  0  0  0  0
M  END
