
 OpenBabel10072620033D

 44 47  0  0  0  0  0  0  0  0999 V2000
    0.8205   -0.3055    0.5586 C   0  0  0  0  0  0  0  0  0  0  0  0
    2.2665    0.0359    0.2403 C   0  0  0  0  0  0  0  0  0  0  0  0
    2.8277    0.9481    1.2081 N   0  0  0  0  0  0  0  0  0  0  0  0
    2.6755    2.3375    1.2175 C   0  0  0  0  0  0  0  0  0  0  0  0
    3.2864    2.8051    2.3609 C   0  0  0  0  0  0  0  0  0  0  0  0
    3.3611    4.1139    2.7420 C   0  0  0  0  0  0  0  0  0  0  0  0
    2.7230    5.0253    1.8601 C   0  0  0  0  0  0  0  0  0  0  0  0
    2.0994    4.5690    0.6727 C   0  0  0  0  0  0  0  0  0  0  0  0
    2.0615    3.2043    0.3287 C   0  0  0  0  0  0  0  0  0  0  0  0
    2.7210    6.7749    2.1995 S   0  0  0  0  0  0  0  0  0  0  0  0
    4.1098    7.1793    2.2748 O   0  0  0  0  0  0  0  0  0  0  0  0
    1.8126    7.4008    1.2577 O   0  0  0  0  0  0  0  0  0  0  0  0
    1.9981    6.8811    3.7587 N   0  0  0  0  0  0  0  0  0  0  0  0
    0.6104    6.3645    3.8445 C   0  0  0  0  0  0  0  0  0  0  0  0
    2.1888    8.1675    4.3835 C   0  0  0  0  0  0  0  0  0  0  0  0
    1.4345    9.2861    4.0194 C   0  0  0  0  0  0  0  0  0  0  0  0
    1.6330   10.4996    4.6838 C   0  0  0  0  0  0  0  0  0  0  0  0
    2.5868   10.6011    5.6998 C   0  0  0  0  0  0  0  0  0  0  0  0
    3.3618    9.4927    6.0404 C   0  0  0  0  0  0  0  0  0  0  0  0
    3.1627    8.2776    5.3799 C   0  0  0  0  0  0  0  0  0  0  0  0
    4.0706    4.3344    3.9471 C   0  0  0  0  0  0  0  0  0  0  0  0
    4.6212    3.2626    4.6801 C   0  0  0  0  0  0  0  0  0  0  0  0
    4.4955    1.9334    4.2492 C   0  0  0  0  0  0  0  0  0  0  0  0
    3.8081    1.7251    3.0573 C   0  0  0  0  0  0  0  0  0  0  0  0
    3.5155    0.4911    2.3566 C   0  0  0  0  0  0  0  0  0  0  0  0
    3.7621   -0.6751    2.6335 O   0  0  0  0  0  0  0  0  0  0  0  0
    0.4443   -1.0503   -0.1492 H   0  0  0  0  0  0  0  0  0  0  0  0
    0.1852    0.5837    0.4954 H   0  0  0  0  0  0  0  0  0  0  0  0
    0.7210   -0.7095    1.5719 H   0  0  0  0  0  0  0  0  0  0  0  0
    2.3555    0.4701   -0.7593 H   0  0  0  0  0  0  0  0  0  0  0  0
    2.8591   -0.8858    0.2391 H   0  0  0  0  0  0  0  0  0  0  0  0
    1.6422    5.2835   -0.0095 H   0  0  0  0  0  0  0  0  0  0  0  0
    1.5892    2.8564   -0.5816 H   0  0  0  0  0  0  0  0  0  0  0  0
   -0.0262    6.7793    3.0550 H   0  0  0  0  0  0  0  0  0  0  0  0
    0.1577    6.6189    4.8122 H   0  0  0  0  0  0  0  0  0  0  0  0
    0.6263    5.2726    3.7779 H   0  0  0  0  0  0  0  0  0  0  0  0
    0.6878    9.2272    3.2307 H   0  0  0  0  0  0  0  0  0  0  0  0
    1.0401   11.3671    4.4056 H   0  0  0  0  0  0  0  0  0  0  0  0
    2.7353   11.5496    6.2130 H   0  0  0  0  0  0  0  0  0  0  0  0
    4.1180    9.5681    6.8187 H   0  0  0  0  0  0  0  0  0  0  0  0
    3.7638    7.4162    5.6548 H   0  0  0  0  0  0  0  0  0  0  0  0
    4.2077    5.3432    4.3244 H   0  0  0  0  0  0  0  0  0  0  0  0
    5.1649    3.4740    5.5997 H   0  0  0  0  0  0  0  0  0  0  0  0
    4.9164    1.1023    4.8066 H   0  0  0  0  0  0  0  0  0  0  0  0
  1  2  1  0  0  0  0
  1 27  1  0  0  0  0
  1 28  1  0  0  0  0
  1 29  1  0  0  0  0
  2  3  1  0  0  0  0
  2 30  1  0  0  0  0
  2 31  1  0  0  0  0
  3  4  1  0  0  0  0
  3 25  1  0  0  0  0
  4  5  2  0  0  0  0
  4  9  1  0  0  0  0
  5  6  1  0  0  0  0
  5 24  1  0  0  0  0
  6  7  2  0  0  0  0
  6 21  1  0  0  0  0
  7  8  1  0  0  0  0
  7 10  1  0  0  0  0
  8  9  2  0  0  0  0
  8 32  1  0  0  0  0
  9 33  1  0  0  0  0
 10 11  2  0  0  0  0
 10 12  2  0  0  0  0
 10 13  1  0  0  0  0
 13 14  1  0  0  0  0
 13 15  1  0  0  0  0
 14 34  1  0  0  0  0
 14 35  1  0  0  0  0
 14 36  1  0  0  0  0
 15 16  2  0  0  0  0
 15 20  1  0  0  0  0
 16 17  1  0  0  0  0
 16 37  1  0  0  0  0
 17 18  2  0  0  0  0
 17 38  1  0  0  0  0
 18 19  1  0  0  0  0
 18 39  1  0  0  0  0
 19 20  2  0  0  0  0
 19 40  1  0  0  0  0
 20 41  1  0  0  0  0
 21 22  2  0  0  0  0
 21 42  1  0  0  0  0
 22 23  1  0  0  0  0
 22 43  1  0  0  0  0
 23 24  2  0  0  0  0
 23 44  1  0  0  0  0
 24 25  1  0  0  0  0
 25 26  2  0  0  0  0
M  END
