
 OpenBabel10072619583D

 96101  0  0  0  0  0  0  0  0999 V2000
  -14.1034   -2.2705   -0.0410 C   0  0  0  0  0  0  0  0  0  0  0  0
  -13.9228   -0.9088    0.1603 C   0  0  0  0  0  0  0  0  0  0  0  0
  -12.7008   -0.2688   -0.1946 C   0  0  0  0  0  0  0  0  0  0  0  0
  -12.4212    1.1121   -0.0248 C   0  0  0  0  0  0  0  0  0  0  0  0
  -11.1707    1.6625   -0.3729 C   0  0  0  0  0  0  0  0  0  0  0  0
  -10.1497    0.8668   -0.9208 C   0  0  0  0  0  0  0  0  0  0  0  0
  -10.4437   -0.4927   -1.1237 C   0  0  0  0  0  0  0  0  0  0  0  0
  -11.6859   -1.0806   -0.7614 C   0  0  0  0  0  0  0  0  0  0  0  0
  -11.8848   -2.4075   -0.9484 N   0  0  0  0  0  0  0  0  0  0  0  0
  -13.0580   -2.9686   -0.5910 C   0  0  0  0  0  0  0  0  0  0  0  0
   -9.5126   -1.3279   -1.7076 O   0  0  0  0  0  0  0  0  0  0  0  0
   -8.7986    1.4952   -1.2180 C   0  0  0  0  0  0  0  0  0  0  0  0
   -7.7137    1.3515    0.2509 S   0  0  0  0  0  0  0  0  0  0  0  0
   -6.1836    2.2551   -0.2487 C   0  0  0  0  0  0  0  0  0  0  0  0
   -6.4578    3.6741   -0.6743 C   0  0  0  0  0  0  0  0  0  0  0  0
   -6.6790    3.9048   -1.8614 O   0  0  0  0  0  0  0  0  0  0  0  0
   -6.3931    4.6259    0.3307 N   0  0  0  0  0  0  0  0  0  0  0  0
   -6.7541    5.9866    0.1885 C   0  0  0  0  0  0  0  0  0  0  0  0
   -7.5265    6.4178   -0.8813 C   0  0  0  0  0  0  0  0  0  0  0  0
   -7.8907    7.7649   -1.0701 C   0  0  0  0  0  0  0  0  0  0  0  0
   -7.5062    8.7266   -0.1386 C   0  0  0  0  0  0  0  0  0  0  0  0
   -6.7522    8.2906    0.9725 C   0  0  0  0  0  0  0  0  0  0  0  0
   -6.3897    6.9373    1.1428 C   0  0  0  0  0  0  0  0  0  0  0  0
   -7.8091   10.1586   -0.1480 C   0  0  0  0  0  0  0  0  0  0  0  0
   -6.9360   11.0136   -0.7107 C   0  0  0  0  0  0  0  0  0  0  0  0
   -6.9722   12.4817   -0.5714 C   0  0  0  0  0  0  0  0  0  0  0  0
   -6.3002   13.1932    0.4406 C   0  0  0  0  0  0  0  0  0  0  0  0
   -6.2792   14.5922    0.4463 C   0  0  0  0  0  0  0  0  0  0  0  0
   -6.9663   15.3290   -0.4986 C   0  0  0  0  0  0  0  0  0  0  0  0
   -7.5978   14.6433   -1.5391 C   0  0  0  0  0  0  0  0  0  0  0  0
   -7.6231   13.2330   -1.5614 C   0  0  0  0  0  0  0  0  0  0  0  0
   -7.0606   16.7344   -0.4052 N   0  0  0  0  0  0  0  0  0  0  0  0
   -6.9284   17.4470    0.7804 C   0  0  0  0  0  0  0  0  0  0  0  0
   -6.6173   16.9843    1.8755 O   0  0  0  0  0  0  0  0  0  0  0  0
   -7.2457   18.9066    0.6644 C   0  0  0  0  0  0  0  0  0  0  0  0
   -9.0382   19.2263    0.8761 S   0  0  0  0  0  0  0  0  0  0  0  0
   -9.3930   18.5649    2.5452 C   0  0  0  0  0  0  0  0  0  0  0  0
  -10.8831   18.6183    2.8107 C   0  0  0  0  0  0  0  0  0  0  0  0
  -11.7158   17.5612    2.4369 C   0  0  0  0  0  0  0  0  0  0  0  0
  -13.1158   17.6431    2.6006 C   0  0  0  0  0  0  0  0  0  0  0  0
  -13.7439   18.7968    3.1404 C   0  0  0  0  0  0  0  0  0  0  0  0
  -15.1392   18.9984    3.3085 C   0  0  0  0  0  0  0  0  0  0  0  0
  -15.6269   20.1843    3.8440 C   0  0  0  0  0  0  0  0  0  0  0  0
  -14.7118   21.1474    4.2037 C   0  0  0  0  0  0  0  0  0  0  0  0
  -13.3751   21.0040    4.0732 N   0  0  0  0  0  0  0  0  0  0  0  0
  -12.9064   19.8509    3.5454 C   0  0  0  0  0  0  0  0  0  0  0  0
  -11.5139   19.7256    3.3822 C   0  0  0  0  0  0  0  0  0  0  0  0
  -10.7342   20.7857    3.8034 O   0  0  0  0  0  0  0  0  0  0  0  0
  -14.1010   16.2474    2.1158 S   0  0  0  0  0  0  0  0  0  0  0  0
  -14.8241   15.8038    3.2882 O   0  0  0  0  0  0  0  0  0  0  0  0
  -14.7648   16.5849    0.8790 O   0  0  0  0  0  0  0  0  0  0  0  0
  -13.0391   15.0696    1.8126 O   0  0  0  0  0  0  0  0  0  0  0  0
   -5.3493   12.3756    1.6962 S   0  0  0  0  0  0  0  0  0  0  0  0
   -6.2523   11.6411    2.5516 O   0  0  0  0  0  0  0  0  0  0  0  0
   -4.2179   11.7560    1.0317 O   0  0  0  0  0  0  0  0  0  0  0  0
   -4.7708   13.5816    2.6142 O   0  0  0  0  0  0  0  0  0  0  0  0
   -8.8092    8.0361   -2.5601 S   0  0  0  0  0  0  0  0  0  0  0  0
  -10.0011    7.2117   -2.4470 O   0  0  0  0  0  0  0  0  0  0  0  0
   -8.8834    9.4325   -2.9040 O   0  0  0  0  0  0  0  0  0  0  0  0
   -7.8853    7.3175   -3.6837 O   0  0  0  0  0  0  0  0  0  0  0  0
  -13.6678    2.2059    0.6281 S   0  0  0  0  0  0  0  0  0  0  0  0
  -14.8141    2.1328   -0.2524 O   0  0  0  0  0  0  0  0  0  0  0  0
  -13.7680    1.9627    2.0484 O   0  0  0  0  0  0  0  0  0  0  0  0
  -13.0781    3.6952    0.4183 O   0  0  0  0  0  0  0  0  0  0  0  0
  -15.0290   -2.7683    0.2271 H   0  0  0  0  0  0  0  0  0  0  0  0
  -14.7573   -0.3635    0.5968 H   0  0  0  0  0  0  0  0  0  0  0  0
  -10.9819    2.7213   -0.1972 H   0  0  0  0  0  0  0  0  0  0  0  0
  -13.1285   -4.0370   -0.7681 H   0  0  0  0  0  0  0  0  0  0  0  0
   -8.6442   -0.9078   -1.7851 H   0  0  0  0  0  0  0  0  0  0  0  0
   -8.9397    2.5460   -1.4688 H   0  0  0  0  0  0  0  0  0  0  0  0
   -8.3305    1.0312   -2.0865 H   0  0  0  0  0  0  0  0  0  0  0  0
   -5.7112    1.7186   -1.0843 H   0  0  0  0  0  0  0  0  0  0  0  0
   -5.4651    2.2348    0.5943 H   0  0  0  0  0  0  0  0  0  0  0  0
   -6.0164    4.3535    1.2279 H   0  0  0  0  0  0  0  0  0  0  0  0
   -7.9050    5.6886   -1.5877 H   0  0  0  0  0  0  0  0  0  0  0  0
   -6.4271    9.0273    1.7154 H   0  0  0  0  0  0  0  0  0  0  0  0
   -5.8142    6.6824    2.0326 H   0  0  0  0  0  0  0  0  0  0  0  0
   -8.6589   10.4721    0.4454 H   0  0  0  0  0  0  0  0  0  0  0  0
   -6.0968   10.6069   -1.2742 H   0  0  0  0  0  0  0  0  0  0  0  0
   -5.6642   15.1328    1.1482 H   0  0  0  0  0  0  0  0  0  0  0  0
   -8.0837   15.1813   -2.3511 H   0  0  0  0  0  0  0  0  0  0  0  0
   -8.1392   12.7167   -2.3716 H   0  0  0  0  0  0  0  0  0  0  0  0
   -7.4974   17.2149   -1.1814 H   0  0  0  0  0  0  0  0  0  0  0  0
   -6.9309   19.2638   -0.3334 H   0  0  0  0  0  0  0  0  0  0  0  0
   -6.6625   19.4634    1.4073 H   0  0  0  0  0  0  0  0  0  0  0  0
   -8.8191   19.0875    3.3082 H   0  0  0  0  0  0  0  0  0  0  0  0
   -9.0804   17.5249    2.5739 H   0  0  0  0  0  0  0  0  0  0  0  0
  -11.2740   16.6789    1.9822 H   0  0  0  0  0  0  0  0  0  0  0  0
  -15.8667   18.2427    3.0259 H   0  0  0  0  0  0  0  0  0  0  0  0
  -16.6926   20.3487    3.9706 H   0  0  0  0  0  0  0  0  0  0  0  0
  -15.0388   22.0953    4.6184 H   0  0  0  0  0  0  0  0  0  0  0  0
  -11.3902   21.4362    4.1383 H   0  0  0  0  0  0  0  0  0  0  0  0
  -12.9769   14.5030    2.6106 H   0  0  0  0  0  0  0  0  0  0  0  0
   -5.4900   13.9220    3.1909 H   0  0  0  0  0  0  0  0  0  0  0  0
   -8.1836    6.3943   -3.8279 H   0  0  0  0  0  0  0  0  0  0  0  0
  -13.4827    4.0766   -0.3902 H   0  0  0  0  0  0  0  0  0  0  0  0
  1  2  2  0  0  0  0
  1 10  1  0  0  0  0
  1 65  1  0  0  0  0
  2  3  1  0  0  0  0
  2 66  1  0  0  0  0
  3  4  2  0  0  0  0
  3  8  1  0  0  0  0
  4  5  1  0  0  0  0
  4 61  1  0  0  0  0
  5  6  2  0  0  0  0
  5 67  1  0  0  0  0
  6  7  1  0  0  0  0
  6 12  1  0  0  0  0
  7  8  2  0  0  0  0
  7 11  1  0  0  0  0
  8  9  1  0  0  0  0
  9 10  2  0  0  0  0
 10 68  1  0  0  0  0
 11 69  1  0  0  0  0
 12 13  1  0  0  0  0
 12 70  1  0  0  0  0
 12 71  1  0  0  0  0
 13 14  1  0  0  0  0
 14 15  1  0  0  0  0
 14 72  1  0  0  0  0
 14 73  1  0  0  0  0
 15 16  2  0  0  0  0
 15 17  1  0  0  0  0
 17 18  1  0  0  0  0
 17 74  1  0  0  0  0
 18 19  2  0  0  0  0
 18 23  1  0  0  0  0
 19 20  1  0  0  0  0
 19 75  1  0  0  0  0
 20 21  2  0  0  0  0
 20 57  1  0  0  0  0
 21 22  1  0  0  0  0
 21 24  1  0  0  0  0
 22 23  2  0  0  0  0
 22 76  1  0  0  0  0
 23 77  1  0  0  0  0
 24 25  2  0  0  0  0
 24 78  1  0  0  0  0
 25 26  1  0  0  0  0
 25 79  1  0  0  0  0
 26 27  2  0  0  0  0
 26 31  1  0  0  0  0
 27 28  1  0  0  0  0
 27 53  1  0  0  0  0
 28 29  2  0  0  0  0
 28 80  1  0  0  0  0
 29 30  1  0  0  0  0
 29 32  1  0  0  0  0
 30 31  2  0  0  0  0
 30 81  1  0  0  0  0
 31 82  1  0  0  0  0
 32 33  1  0  0  0  0
 32 83  1  0  0  0  0
 33 34  2  0  0  0  0
 33 35  1  0  0  0  0
 35 36  1  0  0  0  0
 35 84  1  0  0  0  0
 35 85  1  0  0  0  0
 36 37  1  0  0  0  0
 37 38  1  0  0  0  0
 37 86  1  0  0  0  0
 37 87  1  0  0  0  0
 38 39  2  0  0  0  0
 38 47  1  0  0  0  0
 39 40  1  0  0  0  0
 39 88  1  0  0  0  0
 40 41  2  0  0  0  0
 40 49  1  0  0  0  0
 41 42  1  0  0  0  0
 41 46  1  0  0  0  0
 42 43  2  0  0  0  0
 42 89  1  0  0  0  0
 43 44  1  0  0  0  0
 43 90  1  0  0  0  0
 44 45  2  0  0  0  0
 44 91  1  0  0  0  0
 45 46  1  0  0  0  0
 46 47  2  0  0  0  0
 47 48  1  0  0  0  0
 48 92  1  0  0  0  0
 49 50  2  0  0  0  0
 49 51  2  0  0  0  0
 49 52  1  0  0  0  0
 52 93  1  0  0  0  0
 53 54  2  0  0  0  0
 53 55  2  0  0  0  0
 53 56  1  0  0  0  0
 56 94  1  0  0  0  0
 57 58  2  0  0  0  0
 57 59  2  0  0  0  0
 57 60  1  0  0  0  0
 60 95  1  0  0  0  0
 61 62  2  0  0  0  0
 61 63  2  0  0  0  0
 61 64  1  0  0  0  0
 64 96  1  0  0  0  0
M  END
