
 OpenBabel10072616313D

 38 39  0  0  1  0  0  0  0  0999 V2000
    2.9557    1.3293   -0.3499 C   0  0  0  0  0  0  0  0  0  0  0  0
    2.7333   -0.1790   -0.2981 C   0  0  0  0  0  0  0  0  0  0  0  0
    3.0221   -0.7669    1.0975 C   0  0  3  0  0  0  0  0  0  0  0  0
    2.5520   -2.2158    1.1672 C   0  0  0  0  0  0  0  0  0  0  0  0
    3.4083   -3.2900    0.8781 C   0  0  0  0  0  0  0  0  0  0  0  0
    2.9499   -4.6087    0.9446 C   0  0  0  0  0  0  0  0  0  0  0  0
    1.6272   -4.8728    1.2917 C   0  0  0  0  0  0  0  0  0  0  0  0
    0.7613   -3.8188    1.5713 C   0  0  0  0  0  0  0  0  0  0  0  0
    1.2182   -2.5001    1.5053 C   0  0  0  0  0  0  0  0  0  0  0  0
    4.4554   -0.6510    1.3581 N   0  0  0  0  0  0  0  0  0  0  0  0
    5.0075    0.1069    2.2426 C   0  0  0  0  0  0  0  0  0  0  0  0
    4.3107    0.9338    3.0908 N   0  0  0  0  0  0  0  0  0  0  0  0
    4.8934    1.5313    4.2570 C   0  0  0  0  0  0  0  0  0  0  0  0
    5.4029    2.0186    5.1747 N   0  0  0  0  0  0  0  0  0  0  0  0
    6.3809    0.1559    2.3870 N   0  0  0  0  0  0  0  0  0  0  0  0
    7.3961   -0.4582    1.6259 C   0  0  0  0  0  0  0  0  0  0  0  0
    8.7014   -0.5124    2.1320 C   0  0  0  0  0  0  0  0  0  0  0  0
    9.7631   -1.0911    1.5185 N   0  0  0  0  0  0  0  0  0  0  0  0
    9.5199   -1.6693    0.3268 C   0  0  0  0  0  0  0  0  0  0  0  0
    8.2734   -1.6882   -0.2713 C   0  0  0  0  0  0  0  0  0  0  0  0
    7.2058   -1.0810    0.3930 C   0  0  0  0  0  0  0  0  0  0  0  0
    2.6731    1.7193   -1.3331 H   0  0  0  0  0  0  0  0  0  0  0  0
    4.0060    1.5851   -0.1785 H   0  0  0  0  0  0  0  0  0  0  0  0
    2.3480    1.8421    0.4032 H   0  0  0  0  0  0  0  0  0  0  0  0
    3.3661   -0.6613   -1.0543 H   0  0  0  0  0  0  0  0  0  0  0  0
    1.6922   -0.3777   -0.5835 H   0  0  0  0  0  0  0  0  0  0  0  0
    2.4250   -0.2127    1.8273 H   0  0  0  0  0  0  0  0  0  0  0  0
    4.4461   -3.1060    0.6079 H   0  0  0  0  0  0  0  0  0  0  0  0
    3.6281   -5.4297    0.7271 H   0  0  0  0  0  0  0  0  0  0  0  0
    1.2716   -5.8988    1.3401 H   0  0  0  0  0  0  0  0  0  0  0  0
   -0.2716   -4.0231    1.8401 H   0  0  0  0  0  0  0  0  0  0  0  0
    0.5231   -1.6926    1.7220 H   0  0  0  0  0  0  0  0  0  0  0  0
    3.3115    0.8285    3.1202 H   0  0  0  0  0  0  0  0  0  0  0  0
    6.7606    0.7287    3.1290 H   0  0  0  0  0  0  0  0  0  0  0  0
    8.9433   -0.0760    3.0981 H   0  0  0  0  0  0  0  0  0  0  0  0
   10.3804   -2.1289   -0.1495 H   0  0  0  0  0  0  0  0  0  0  0  0
    8.1270   -2.1622   -1.2356 H   0  0  0  0  0  0  0  0  0  0  0  0
    6.2346   -1.0938   -0.0894 H   0  0  0  0  0  0  0  0  0  0  0  0
  1  2  1  0  0  0  0
  1 22  1  0  0  0  0
  1 23  1  0  0  0  0
  1 24  1  0  0  0  0
  2  3  1  0  0  0  0
  2 25  1  0  0  0  0
  2 26  1  0  0  0  0
  3  4  1  0  0  0  0
  3 10  1  0  0  0  0
  3 27  1  0  0  0  0
  4  5  2  0  0  0  0
  4  9  1  0  0  0  0
  5  6  1  0  0  0  0
  5 28  1  0  0  0  0
  6  7  2  0  0  0  0
  6 29  1  0  0  0  0
  7  8  1  0  0  0  0
  7 30  1  0  0  0  0
  8  9  2  0  0  0  0
  8 31  1  0  0  0  0
  9 32  1  0  0  0  0
 10 11  2  3  0  0  0
 11 12  1  0  0  0  0
 11 15  1  0  0  0  0
 12 13  1  0  0  0  0
 12 33  1  0  0  0  0
 13 14  3  0  0  0  0
 15 16  1  0  0  0  0
 15 34  1  0  0  0  0
 16 17  2  0  0  0  0
 16 21  1  0  0  0  0
 17 18  1  0  0  0  0
 17 35  1  0  0  0  0
 18 19  2  0  0  0  0
 19 20  1  0  0  0  0
 19 36  1  0  0  0  0
 20 21  2  0  0  0  0
 20 37  1  0  0  0  0
 21 38  1  0  0  0  0
M  END
