
 OpenBabel10072620033D

 40 41  0  0  0  0  0  0  0  0999 V2000
    3.0528    1.0567   -1.5660 C   0  0  0  0  0  0  0  0  0  0  0  0
    2.8304    0.3709   -0.3399 O   0  0  0  0  0  0  0  0  0  0  0  0
    2.0665   -0.7655   -0.3987 C   0  0  0  0  0  0  0  0  0  0  0  0
    1.6057   -1.3547   -1.5830 C   0  0  0  0  0  0  0  0  0  0  0  0
    0.7736   -2.4773   -1.5413 C   0  0  0  0  0  0  0  0  0  0  0  0
    0.3822   -3.0167   -0.3185 C   0  0  0  0  0  0  0  0  0  0  0  0
    0.8463   -2.4493    0.8666 C   0  0  0  0  0  0  0  0  0  0  0  0
    1.7067   -1.3503    0.8265 C   0  0  0  0  0  0  0  0  0  0  0  0
    2.0855   -0.8461    2.0439 O   0  0  0  0  0  0  0  0  0  0  0  0
    3.4937   -0.9448    2.2566 C   0  0  0  0  0  0  0  0  0  0  0  0
    3.8502   -0.9402    3.7484 C   0  0  0  0  0  0  0  0  0  0  0  0
    4.5955   -1.7912    4.2394 O   0  0  0  0  0  0  0  0  0  0  0  0
    3.4016    0.1090    4.5242 N   0  0  0  0  0  0  0  0  0  0  0  0
    2.2880    0.8588    4.1345 N   0  0  0  0  0  0  0  0  0  0  0  0
    1.2139    0.9555    5.0083 C   0  0  0  0  0  0  0  0  0  0  0  0
    1.2532    0.4908    6.1408 O   0  0  0  0  0  0  0  0  0  0  0  0
    0.1572    1.6111    4.4124 N   0  0  0  0  0  0  0  0  0  0  0  0
   -1.0621    1.9979    4.9993 C   0  0  0  0  0  0  0  0  0  0  0  0
   -1.3452    1.8760    6.3621 C   0  0  0  0  0  0  0  0  0  0  0  0
   -2.5696    2.3240    6.8736 C   0  0  0  0  0  0  0  0  0  0  0  0
   -3.5114    2.8953    6.0237 C   0  0  0  0  0  0  0  0  0  0  0  0
   -3.2481    3.0104    4.6615 C   0  0  0  0  0  0  0  0  0  0  0  0
   -2.0254    2.5615    4.1530 C   0  0  0  0  0  0  0  0  0  0  0  0
   -5.0063    3.4640    6.6558 Cl  0  0  0  0  0  0  0  0  0  0  0  0
    3.5881    1.9836   -1.3428 H   0  0  0  0  0  0  0  0  0  0  0  0
    2.1078    1.3293   -2.0474 H   0  0  0  0  0  0  0  0  0  0  0  0
    3.6819    0.4629   -2.2355 H   0  0  0  0  0  0  0  0  0  0  0  0
    1.8712   -0.9605   -2.5599 H   0  0  0  0  0  0  0  0  0  0  0  0
    0.4195   -2.9220   -2.4697 H   0  0  0  0  0  0  0  0  0  0  0  0
   -0.2806   -3.8776   -0.2884 H   0  0  0  0  0  0  0  0  0  0  0  0
    0.5371   -2.8628    1.8230 H   0  0  0  0  0  0  0  0  0  0  0  0
    4.0112   -0.0928    1.8022 H   0  0  0  0  0  0  0  0  0  0  0  0
    3.8910   -1.8771    1.8328 H   0  0  0  0  0  0  0  0  0  0  0  0
    3.5205   -0.0132    5.5306 H   0  0  0  0  0  0  0  0  0  0  0  0
    2.4288    1.5616    3.4182 H   0  0  0  0  0  0  0  0  0  0  0  0
    0.2185    1.6885    3.4068 H   0  0  0  0  0  0  0  0  0  0  0  0
   -0.6316    1.4434    7.0566 H   0  0  0  0  0  0  0  0  0  0  0  0
   -2.7718    2.2296    7.9376 H   0  0  0  0  0  0  0  0  0  0  0  0
   -3.9823    3.4510    3.9936 H   0  0  0  0  0  0  0  0  0  0  0  0
   -1.8372    2.6691    3.0875 H   0  0  0  0  0  0  0  0  0  0  0  0
  1  2  1  0  0  0  0
  1 25  1  0  0  0  0
  1 26  1  0  0  0  0
  1 27  1  0  0  0  0
  2  3  1  0  0  0  0
  3  4  2  0  0  0  0
  3  8  1  0  0  0  0
  4  5  1  0  0  0  0
  4 28  1  0  0  0  0
  5  6  2  0  0  0  0
  5 29  1  0  0  0  0
  6  7  1  0  0  0  0
  6 30  1  0  0  0  0
  7  8  2  0  0  0  0
  7 31  1  0  0  0  0
  8  9  1  0  0  0  0
  9 10  1  0  0  0  0
 10 11  1  0  0  0  0
 10 32  1  0  0  0  0
 10 33  1  0  0  0  0
 11 12  2  0  0  0  0
 11 13  1  0  0  0  0
 13 14  1  0  0  0  0
 13 34  1  0  0  0  0
 14 15  1  0  0  0  0
 14 35  1  0  0  0  0
 15 16  2  0  0  0  0
 15 17  1  0  0  0  0
 17 18  1  0  0  0  0
 17 36  1  0  0  0  0
 18 19  2  0  0  0  0
 18 23  1  0  0  0  0
 19 20  1  0  0  0  0
 19 37  1  0  0  0  0
 20 21  2  0  0  0  0
 20 38  1  0  0  0  0
 21 22  1  0  0  0  0
 21 24  1  0  0  0  0
 22 23  2  0  0  0  0
 22 39  1  0  0  0  0
 23 40  1  0  0  0  0
M  END
