
 OpenBabel10072619543D

 95100  0  0  1  0  0  0  0  0999 V2000
    3.4541   -2.7052   -3.8338 C   0  0  0  0  0  0  0  0  0  0  0  0
    4.3405   -1.4841   -3.5451 C   0  0  0  0  0  0  0  0  0  0  0  0
    5.2732   -1.2756   -4.7454 C   0  0  0  0  0  0  0  0  0  0  0  0
    3.5094   -0.2090   -3.2476 C   0  0  1  0  0  0  0  0  0  0  0  0
    2.4521   -0.4063   -2.1146 C   0  0  0  0  0  0  0  0  0  0  0  0
    2.7673   -0.5632   -0.9343 O   0  0  0  0  0  0  0  0  0  0  0  0
    1.1012   -0.4198   -2.4542 N   0  0  0  0  0  0  0  0  0  0  0  0
    0.1382   -0.8480   -1.4448 C   0  0  0  0  0  0  0  0  0  0  0  0
   -1.2283   -0.8257   -2.1311 C   0  0  1  0  0  0  0  0  0  0  0  0
   -0.8519   -1.1472   -3.5809 C   0  0  0  0  0  0  0  0  0  0  0  0
    0.5037   -0.4800   -3.7891 C   0  0  1  0  0  0  0  0  0  0  0  0
    0.3211    0.8530   -4.5287 C   0  0  0  0  0  0  0  0  0  0  0  0
   -0.1510    0.8990   -5.6674 O   0  0  0  0  0  0  0  0  0  0  0  0
    0.7840    1.9836   -3.8996 N   0  0  0  0  0  0  0  0  0  0  0  0
    0.9250    3.2342   -4.6330 C   0  0  3  0  0  0  0  0  0  0  0  0
    0.8574    4.5267   -3.8379 C   0  0  0  0  0  0  0  0  0  0  0  0
   -0.2568    4.1966   -4.7834 C   0  0  2  0  0  0  0  0  0  0  0  0
   -1.5755    3.8908   -4.2175 C   0  0  0  0  0  0  0  0  0  0  0  0
   -2.5264    3.1568   -4.8099 C   0  0  0  0  0  0  0  0  0  0  0  0
    1.9001    3.1881   -5.7930 C   0  0  0  0  0  0  0  0  0  0  0  0
    3.0247    3.6605   -5.7136 O   0  0  0  0  0  0  0  0  0  0  0  0
    1.4295    2.5337   -6.8820 O   0  0  0  0  0  0  0  0  0  0  0  0
   -2.1089   -1.8653   -1.7200 O   0  0  0  0  0  0  0  0  0  0  0  0
   -2.6898   -1.8498   -0.4815 C   0  0  0  0  0  0  0  0  0  0  0  0
   -2.5957   -0.7988    0.4205 C   0  0  0  0  0  0  0  0  0  0  0  0
   -3.2318   -0.9172    1.6504 C   0  0  0  0  0  0  0  0  0  0  0  0
   -3.9561   -2.0127    1.9870 N   0  0  0  0  0  0  0  0  0  0  0  0
   -4.0492   -3.0338    1.1210 C   0  0  0  0  0  0  0  0  0  0  0  0
   -3.4312   -3.0027   -0.1403 C   0  0  0  0  0  0  0  0  0  0  0  0
   -3.5694   -4.1159   -0.9995 C   0  0  0  0  0  0  0  0  0  0  0  0
   -4.2962   -5.2426   -0.6127 C   0  0  0  0  0  0  0  0  0  0  0  0
   -4.9046   -5.2718    0.6358 C   0  0  0  0  0  0  0  0  0  0  0  0
   -4.7728   -4.1654    1.4814 C   0  0  0  0  0  0  0  0  0  0  0  0
   -5.6403   -6.3072    1.1450 O   0  0  0  0  0  0  0  0  0  0  0  0
   -5.8182   -7.4396    0.3011 C   0  0  0  0  0  0  0  0  0  0  0  0
   -3.1666    0.1370    2.6779 C   0  0  0  0  0  0  0  0  0  0  0  0
   -4.3014    0.4561    3.4447 C   0  0  0  0  0  0  0  0  0  0  0  0
   -4.2567    1.4388    4.4374 C   0  0  0  0  0  0  0  0  0  0  0  0
   -3.0699    2.1225    4.6860 C   0  0  0  0  0  0  0  0  0  0  0  0
   -1.9312    1.8267    3.9411 C   0  0  0  0  0  0  0  0  0  0  0  0
   -1.9799    0.8439    2.9467 C   0  0  0  0  0  0  0  0  0  0  0  0
    4.3057    1.0328   -3.0402 N   0  0  0  0  0  0  0  0  0  0  0  0
    5.4748    1.0998   -2.2748 C   0  0  0  0  0  0  0  0  0  0  0  0
    5.7585    0.2924   -1.1754 C   0  0  0  0  0  0  0  0  0  0  0  0
    6.9603    0.4104   -0.4585 C   0  0  0  0  0  0  0  0  0  0  0  0
    7.9074    1.3686   -0.8014 C   0  0  0  0  0  0  0  0  0  0  0  0
    7.6094    2.2368   -1.8528 C   0  0  0  0  0  0  0  0  0  0  0  0
    6.4031    2.1134   -2.5617 C   0  0  0  0  0  0  0  0  0  0  0  0
    9.1487    1.5176   -0.1446 N   0  0  0  0  0  0  0  0  0  0  0  0
    9.6236    0.7697    0.9189 C   0  0  0  0  0  0  0  0  0  0  0  0
    9.0617   -0.1725    1.4702 O   0  0  0  0  0  0  0  0  0  0  0  0
   10.9934    1.1967    1.3837 C   0  0  0  0  0  0  0  0  0  0  0  0
    4.0760   -3.5884   -4.0179 H   0  0  0  0  0  0  0  0  0  0  0  0
    2.8359   -2.5498   -4.7236 H   0  0  0  0  0  0  0  0  0  0  0  0
    2.7985   -2.9422   -2.9897 H   0  0  0  0  0  0  0  0  0  0  0  0
    4.9541   -1.7532   -2.6801 H   0  0  0  0  0  0  0  0  0  0  0  0
    4.7048   -1.0253   -5.6479 H   0  0  0  0  0  0  0  0  0  0  0  0
    5.8435   -2.1878   -4.9489 H   0  0  0  0  0  0  0  0  0  0  0  0
    5.9955   -0.4743   -4.5677 H   0  0  0  0  0  0  0  0  0  0  0  0
    2.9517    0.0024   -4.1639 H   0  0  0  0  0  0  0  0  0  0  0  0
    0.1904   -0.1855   -0.5753 H   0  0  0  0  0  0  0  0  0  0  0  0
    0.4032   -1.8594   -1.1137 H   0  0  0  0  0  0  0  0  0  0  0  0
   -1.6997    0.1646   -2.0869 H   0  0  0  0  0  0  0  0  0  0  0  0
   -1.6357   -0.8248   -4.2745 H   0  0  0  0  0  0  0  0  0  0  0  0
   -0.7513   -2.2340   -3.7052 H   0  0  0  0  0  0  0  0  0  0  0  0
    1.1245   -1.1054   -4.4351 H   0  0  0  0  0  0  0  0  0  0  0  0
    1.3116    1.8861   -3.0364 H   0  0  0  0  0  0  0  0  0  0  0  0
    1.5227    5.3368   -4.1178 H   0  0  0  0  0  0  0  0  0  0  0  0
    0.6862    4.4607   -2.7710 H   0  0  0  0  0  0  0  0  0  0  0  0
   -0.3030    4.7930   -5.6920 H   0  0  0  0  0  0  0  0  0  0  0  0
   -1.8036    4.3268   -3.2452 H   0  0  0  0  0  0  0  0  0  0  0  0
   -2.3703    2.7088   -5.7875 H   0  0  0  0  0  0  0  0  0  0  0  0
   -3.4870    2.9970   -4.3292 H   0  0  0  0  0  0  0  0  0  0  0  0
    0.5837    2.0628   -6.6734 H   0  0  0  0  0  0  0  0  0  0  0  0
   -2.0604    0.1120    0.1911 H   0  0  0  0  0  0  0  0  0  0  0  0
   -3.0994   -4.1119   -1.9816 H   0  0  0  0  0  0  0  0  0  0  0  0
   -4.3602   -6.0737   -1.3067 H   0  0  0  0  0  0  0  0  0  0  0  0
   -5.2447   -4.1920    2.4610 H   0  0  0  0  0  0  0  0  0  0  0  0
   -6.4128   -8.1781    0.8474 H   0  0  0  0  0  0  0  0  0  0  0  0
   -4.8576   -7.9047    0.0537 H   0  0  0  0  0  0  0  0  0  0  0  0
   -6.3717   -7.1704   -0.6053 H   0  0  0  0  0  0  0  0  0  0  0  0
   -5.2364   -0.0743    3.2690 H   0  0  0  0  0  0  0  0  0  0  0  0
   -5.1466    1.6554    5.0234 H   0  0  0  0  0  0  0  0  0  0  0  0
   -3.0303    2.8764    5.4681 H   0  0  0  0  0  0  0  0  0  0  0  0
   -0.9991    2.3491    4.1446 H   0  0  0  0  0  0  0  0  0  0  0  0
   -1.0642    0.6158    2.4055 H   0  0  0  0  0  0  0  0  0  0  0  0
    4.4571    1.5168   -3.9269 H   0  0  0  0  0  0  0  0  0  0  0  0
    5.0706   -0.4734   -0.8363 H   0  0  0  0  0  0  0  0  0  0  0  0
    7.1161   -0.2781    0.3653 H   0  0  0  0  0  0  0  0  0  0  0  0
    8.2990    3.0245   -2.1428 H   0  0  0  0  0  0  0  0  0  0  0  0
    6.2058    2.8158   -3.3692 H   0  0  0  0  0  0  0  0  0  0  0  0
    9.7559    2.2408   -0.5084 H   0  0  0  0  0  0  0  0  0  0  0  0
   11.3087    2.1394    0.9295 H   0  0  0  0  0  0  0  0  0  0  0  0
   11.7185    0.4181    1.1281 H   0  0  0  0  0  0  0  0  0  0  0  0
   10.9664    1.3289    2.4692 H   0  0  0  0  0  0  0  0  0  0  0  0
  1  2  1  0  0  0  0
  1 53  1  0  0  0  0
  1 54  1  0  0  0  0
  1 55  1  0  0  0  0
  2  3  1  0  0  0  0
  2  4  1  0  0  0  0
  2 56  1  0  0  0  0
  3 57  1  0  0  0  0
  3 58  1  0  0  0  0
  3 59  1  0  0  0  0
  4  5  1  0  0  0  0
  4 42  1  0  0  0  0
  4 60  1  6  0  0  0
  5  6  2  0  0  0  0
  5  7  1  0  0  0  0
  7  8  1  0  0  0  0
  7 11  1  0  0  0  0
  8  9  1  0  0  0  0
  8 61  1  0  0  0  0
  8 62  1  0  0  0  0
  9 10  1  0  0  0  0
  9 23  1  0  0  0  0
  9 63  1  1  0  0  0
 10 11  1  0  0  0  0
 10 64  1  0  0  0  0
 10 65  1  0  0  0  0
 11 12  1  0  0  0  0
 11 66  1  6  0  0  0
 12 13  2  0  0  0  0
 12 14  1  0  0  0  0
 14 15  1  0  0  0  0
 14 67  1  0  0  0  0
 15 16  1  0  0  0  0
 15 17  1  0  0  0  0
 15 20  1  0  0  0  0
 16 17  1  0  0  0  0
 16 68  1  0  0  0  0
 16 69  1  0  0  0  0
 17 18  1  0  0  0  0
 17 70  1  6  0  0  0
 18 19  2  0  0  0  0
 18 71  1  0  0  0  0
 19 72  1  0  0  0  0
 19 73  1  0  0  0  0
 20 21  2  0  0  0  0
 20 22  1  0  0  0  0
 22 74  1  0  0  0  0
 23 24  1  0  0  0  0
 24 25  2  0  0  0  0
 24 29  1  0  0  0  0
 25 26  1  0  0  0  0
 25 75  1  0  0  0  0
 26 27  2  0  0  0  0
 26 36  1  0  0  0  0
 27 28  1  0  0  0  0
 28 29  2  0  0  0  0
 28 33  1  0  0  0  0
 29 30  1  0  0  0  0
 30 31  2  0  0  0  0
 30 76  1  0  0  0  0
 31 32  1  0  0  0  0
 31 77  1  0  0  0  0
 32 33  2  0  0  0  0
 32 34  1  0  0  0  0
 33 78  1  0  0  0  0
 34 35  1  0  0  0  0
 35 79  1  0  0  0  0
 35 80  1  0  0  0  0
 35 81  1  0  0  0  0
 36 37  2  0  0  0  0
 36 41  1  0  0  0  0
 37 38  1  0  0  0  0
 37 82  1  0  0  0  0
 38 39  2  0  0  0  0
 38 83  1  0  0  0  0
 39 40  1  0  0  0  0
 39 84  1  0  0  0  0
 40 41  2  0  0  0  0
 40 85  1  0  0  0  0
 41 86  1  0  0  0  0
 42 43  1  0  0  0  0
 42 87  1  0  0  0  0
 43 44  2  0  0  0  0
 43 48  1  0  0  0  0
 44 45  1  0  0  0  0
 44 88  1  0  0  0  0
 45 46  2  0  0  0  0
 45 89  1  0  0  0  0
 46 47  1  0  0  0  0
 46 49  1  0  0  0  0
 47 48  2  0  0  0  0
 47 90  1  0  0  0  0
 48 91  1  0  0  0  0
 49 50  1  0  0  0  0
 49 92  1  0  0  0  0
 50 51  2  0  0  0  0
 50 52  1  0  0  0  0
 52 93  1  0  0  0  0
 52 94  1  0  0  0  0
 52 95  1  0  0  0  0
M  END
