
 OpenBabel10072616313D

 41 42  0  0  1  0  0  0  0  0999 V2000
   -1.4095   -3.1876    0.9219 C   0  0  0  0  0  0  0  0  0  0  0  0
   -0.8755   -1.8008    1.1630 C   0  0  0  0  0  0  0  0  0  0  0  0
   -1.7871   -0.7940    1.5311 C   0  0  0  0  0  0  0  0  0  0  0  0
   -1.3565    0.5097    1.7626 C   0  0  0  0  0  0  0  0  0  0  0  0
   -0.0100    0.8229    1.6270 C   0  0  0  0  0  0  0  0  0  0  0  0
    0.9085   -0.1666    1.2652 C   0  0  0  0  0  0  0  0  0  0  0  0
    0.4965   -1.4845    1.0359 C   0  0  0  0  0  0  0  0  0  0  0  0
    1.4012   -2.5084    0.6698 N   0  0  0  0  0  0  0  0  0  0  0  0
    2.7734   -2.4403    0.5630 C   0  0  0  0  0  0  0  0  0  0  0  0
    3.4892   -1.4847    0.8286 O   0  0  0  0  0  0  0  0  0  0  0  0
    3.2860   -3.6413    0.1165 N   0  0  0  0  0  0  0  0  0  0  0  0
    4.7106   -3.8162   -0.1184 C   0  0  3  0  0  0  0  0  0  0  0  0
    5.1398   -3.1669   -1.4383 C   0  0  0  0  0  0  0  0  0  0  0  0
    5.0520   -5.2958   -0.0516 C   0  0  0  0  0  0  0  0  0  0  0  0
    4.7126   -6.1919   -1.0776 C   0  0  0  0  0  0  0  0  0  0  0  0
    5.0232   -7.5551   -0.9778 C   0  0  0  0  0  0  0  0  0  0  0  0
    5.6735   -8.0472    0.1528 C   0  0  0  0  0  0  0  0  0  0  0  0
    6.0020   -7.1655    1.1831 C   0  0  0  0  0  0  0  0  0  0  0  0
    5.6928   -5.8059    1.0866 C   0  0  0  0  0  0  0  0  0  0  0  0
    6.0362   -9.3467    0.3743 O   0  0  0  0  0  0  0  0  0  0  0  0
    5.7615  -10.2793   -0.6632 C   0  0  0  0  0  0  0  0  0  0  0  0
   -2.4986   -3.2273    1.0328 H   0  0  0  0  0  0  0  0  0  0  0  0
   -0.9794   -3.8904    1.6426 H   0  0  0  0  0  0  0  0  0  0  0  0
   -1.1750   -3.5129   -0.0969 H   0  0  0  0  0  0  0  0  0  0  0  0
   -2.8459   -1.0211    1.6389 H   0  0  0  0  0  0  0  0  0  0  0  0
   -2.0697    1.2790    2.0461 H   0  0  0  0  0  0  0  0  0  0  0  0
    0.3352    1.8382    1.8047 H   0  0  0  0  0  0  0  0  0  0  0  0
    1.9487    0.1290    1.1703 H   0  0  0  0  0  0  0  0  0  0  0  0
    1.0182   -3.4338    0.5755 H   0  0  0  0  0  0  0  0  0  0  0  0
    2.6667   -4.2523   -0.3893 H   0  0  0  0  0  0  0  0  0  0  0  0
    5.2479   -3.2933    0.6836 H   0  0  0  0  0  0  0  0  0  0  0  0
    4.5734   -3.5564   -2.2911 H   0  0  0  0  0  0  0  0  0  0  0  0
    6.2045   -3.3354   -1.6323 H   0  0  0  0  0  0  0  0  0  0  0  0
    4.9718   -2.0847   -1.4140 H   0  0  0  0  0  0  0  0  0  0  0  0
    4.2005   -5.8412   -1.9706 H   0  0  0  0  0  0  0  0  0  0  0  0
    4.7420   -8.2037   -1.8008 H   0  0  0  0  0  0  0  0  0  0  0  0
    6.5044   -7.5402    2.0719 H   0  0  0  0  0  0  0  0  0  0  0  0
    5.9576   -5.1474    1.9120 H   0  0  0  0  0  0  0  0  0  0  0  0
    6.1279  -11.2580   -0.3383 H   0  0  0  0  0  0  0  0  0  0  0  0
    6.2910  -10.0151   -1.5846 H   0  0  0  0  0  0  0  0  0  0  0  0
    4.6843  -10.3693   -0.8374 H   0  0  0  0  0  0  0  0  0  0  0  0
  1  2  1  0  0  0  0
  1 22  1  0  0  0  0
  1 23  1  0  0  0  0
  1 24  1  0  0  0  0
  2  3  2  0  0  0  0
  2  7  1  0  0  0  0
  3  4  1  0  0  0  0
  3 25  1  0  0  0  0
  4  5  2  0  0  0  0
  4 26  1  0  0  0  0
  5  6  1  0  0  0  0
  5 27  1  0  0  0  0
  6  7  2  0  0  0  0
  6 28  1  0  0  0  0
  7  8  1  0  0  0  0
  8  9  1  0  0  0  0
  8 29  1  0  0  0  0
  9 10  2  0  0  0  0
  9 11  1  0  0  0  0
 11 12  1  0  0  0  0
 11 30  1  0  0  0  0
 12 13  1  0  0  0  0
 12 14  1  0  0  0  0
 12 31  1  0  0  0  0
 13 32  1  0  0  0  0
 13 33  1  0  0  0  0
 13 34  1  0  0  0  0
 14 15  2  0  0  0  0
 14 19  1  0  0  0  0
 15 16  1  0  0  0  0
 15 35  1  0  0  0  0
 16 17  2  0  0  0  0
 16 36  1  0  0  0  0
 17 18  1  0  0  0  0
 17 20  1  0  0  0  0
 18 19  2  0  0  0  0
 18 37  1  0  0  0  0
 19 38  1  0  0  0  0
 20 21  1  0  0  0  0
 21 39  1  0  0  0  0
 21 40  1  0  0  0  0
 21 41  1  0  0  0  0
M  END
