
 OpenBabel10072616323D

 50 51  0  0  0  0  0  0  0  0999 V2000
    7.6130    1.1160   -1.7450 C   0  0  0  0  0  0  0  0  0  0  0  0
    6.4760    0.2066   -2.1172 C   0  0  0  0  0  0  0  0  0  0  0  0
    6.6897   -1.0670   -2.4927 C   0  0  0  0  0  0  0  0  0  0  0  0
    5.1003    0.7579   -2.0943 C   0  0  0  0  0  0  0  0  0  0  0  0
    4.8251    2.0294   -2.6271 C   0  0  0  0  0  0  0  0  0  0  0  0
    3.5176    2.5616   -2.6500 C   0  0  0  0  0  0  0  0  0  0  0  0
    2.4788    1.7595   -2.1414 C   0  0  0  0  0  0  0  0  0  0  0  0
    2.7386    0.5137   -1.5764 C   0  0  0  0  0  0  0  0  0  0  0  0
    4.0439    0.0222   -1.5443 C   0  0  0  0  0  0  0  0  0  0  0  0
    3.1895    3.9393   -3.2733 C   0  0  0  0  0  0  0  0  0  0  0  0
    4.4135    4.8766   -3.3048 C   0  0  0  0  0  0  0  0  0  0  0  0
    2.7174    3.6706   -4.7165 C   0  0  0  0  0  0  0  0  0  0  0  0
    2.1358    4.5762   -2.4559 N   0  0  0  0  0  0  0  0  0  0  0  0
    1.5006    5.7448   -2.7814 C   0  0  0  0  0  0  0  0  0  0  0  0
    1.6728    6.3824   -3.8097 O   0  0  0  0  0  0  0  0  0  0  0  0
    0.6199    6.1143   -1.7912 N   0  0  0  0  0  0  0  0  0  0  0  0
   -0.2404    7.2687   -1.9994 C   0  0  0  0  0  0  0  0  0  0  0  0
   -1.0046    7.6357   -0.7280 C   0  0  0  0  0  0  0  0  0  0  0  0
   -1.8653    8.8614   -0.8989 C   0  0  0  0  0  0  0  0  0  0  0  0
   -3.0584    8.8014   -1.6341 C   0  0  0  0  0  0  0  0  0  0  0  0
   -3.8429    9.9435   -1.8034 C   0  0  0  0  0  0  0  0  0  0  0  0
   -3.4481   11.1539   -1.2374 C   0  0  0  0  0  0  0  0  0  0  0  0
   -2.2668   11.2233   -0.4997 C   0  0  0  0  0  0  0  0  0  0  0  0
   -1.4796   10.0832   -0.3321 C   0  0  0  0  0  0  0  0  0  0  0  0
    8.5536    0.5660   -1.6336 H   0  0  0  0  0  0  0  0  0  0  0  0
    7.4132    1.6121   -0.7895 H   0  0  0  0  0  0  0  0  0  0  0  0
    7.7772    1.8825   -2.5087 H   0  0  0  0  0  0  0  0  0  0  0  0
    7.6885   -1.4884   -2.5330 H   0  0  0  0  0  0  0  0  0  0  0  0
    5.8800   -1.7239   -2.7965 H   0  0  0  0  0  0  0  0  0  0  0  0
    5.6460    2.5912   -3.0619 H   0  0  0  0  0  0  0  0  0  0  0  0
    1.4469    2.1062   -2.1866 H   0  0  0  0  0  0  0  0  0  0  0  0
    1.9233   -0.0783   -1.1708 H   0  0  0  0  0  0  0  0  0  0  0  0
    4.2247   -0.9466   -1.0846 H   0  0  0  0  0  0  0  0  0  0  0  0
    5.2061    4.5031   -3.9607 H   0  0  0  0  0  0  0  0  0  0  0  0
    4.8355    5.0042   -2.3015 H   0  0  0  0  0  0  0  0  0  0  0  0
    4.1563    5.8751   -3.6710 H   0  0  0  0  0  0  0  0  0  0  0  0
    3.4831    3.1312   -5.2877 H   0  0  0  0  0  0  0  0  0  0  0  0
    2.5030    4.5924   -5.2653 H   0  0  0  0  0  0  0  0  0  0  0  0
    1.8053    3.0630   -4.7335 H   0  0  0  0  0  0  0  0  0  0  0  0
    2.2485    4.4522   -1.4598 H   0  0  0  0  0  0  0  0  0  0  0  0
    0.2089    5.3285   -1.3080 H   0  0  0  0  0  0  0  0  0  0  0  0
   -0.9326    7.0194   -2.8137 H   0  0  0  0  0  0  0  0  0  0  0  0
    0.3777    8.1082   -2.3413 H   0  0  0  0  0  0  0  0  0  0  0  0
   -0.2973    7.7884    0.0980 H   0  0  0  0  0  0  0  0  0  0  0  0
   -1.6397    6.7968   -0.4165 H   0  0  0  0  0  0  0  0  0  0  0  0
   -3.3844    7.8655   -2.0822 H   0  0  0  0  0  0  0  0  0  0  0  0
   -4.7639    9.8899   -2.3791 H   0  0  0  0  0  0  0  0  0  0  0  0
   -4.0597   12.0422   -1.3692 H   0  0  0  0  0  0  0  0  0  0  0  0
   -1.9575   12.1661   -0.0571 H   0  0  0  0  0  0  0  0  0  0  0  0
   -0.5601   10.1567    0.2455 H   0  0  0  0  0  0  0  0  0  0  0  0
  1  2  1  0  0  0  0
  1 25  1  0  0  0  0
  1 26  1  0  0  0  0
  1 27  1  0  0  0  0
  2  3  2  0  0  0  0
  2  4  1  0  0  0  0
  3 28  1  0  0  0  0
  3 29  1  0  0  0  0
  4  5  2  0  0  0  0
  4  9  1  0  0  0  0
  5  6  1  0  0  0  0
  5 30  1  0  0  0  0
  6  7  2  0  0  0  0
  6 10  1  0  0  0  0
  7  8  1  0  0  0  0
  7 31  1  0  0  0  0
  8  9  2  0  0  0  0
  8 32  1  0  0  0  0
  9 33  1  0  0  0  0
 10 11  1  0  0  0  0
 10 12  1  0  0  0  0
 10 13  1  0  0  0  0
 11 34  1  0  0  0  0
 11 35  1  0  0  0  0
 11 36  1  0  0  0  0
 12 37  1  0  0  0  0
 12 38  1  0  0  0  0
 12 39  1  0  0  0  0
 13 14  1  0  0  0  0
 13 40  1  0  0  0  0
 14 15  2  0  0  0  0
 14 16  1  0  0  0  0
 16 17  1  0  0  0  0
 16 41  1  0  0  0  0
 17 18  1  0  0  0  0
 17 42  1  0  0  0  0
 17 43  1  0  0  0  0
 18 19  1  0  0  0  0
 18 44  1  0  0  0  0
 18 45  1  0  0  0  0
 19 20  2  0  0  0  0
 19 24  1  0  0  0  0
 20 21  1  0  0  0  0
 20 46  1  0  0  0  0
 21 22  2  0  0  0  0
 21 47  1  0  0  0  0
 22 23  1  0  0  0  0
 22 48  1  0  0  0  0
 23 24  2  0  0  0  0
 23 49  1  0  0  0  0
 24 50  1  0  0  0  0
M  END
