
 OpenBabel10072620213D

 50 53  0  0  1  0  0  0  0  0999 V2000
    7.5917   -0.3118   -2.6279 C   0  0  0  0  0  0  0  0  0  0  0  0
    6.4729   -0.6699   -1.8258 O   0  0  0  0  0  0  0  0  0  0  0  0
    5.5749    0.3312   -1.5303 C   0  0  0  0  0  0  0  0  0  0  0  0
    5.6722    1.6525   -1.9848 C   0  0  0  0  0  0  0  0  0  0  0  0
    4.6901    2.5880   -1.6484 C   0  0  0  0  0  0  0  0  0  0  0  0
    3.6170    2.2149   -0.8456 C   0  0  0  0  0  0  0  0  0  0  0  0
    3.5150    0.9034   -0.3803 C   0  0  0  0  0  0  0  0  0  0  0  0
    4.4887   -0.0446   -0.7107 C   0  0  0  0  0  0  0  0  0  0  0  0
    4.4307   -1.3873   -0.2737 N   0  0  0  0  0  0  0  0  0  0  0  0
    3.5858   -1.9266    0.6643 C   0  0  0  0  0  0  0  0  0  0  0  0
    2.7922   -1.3121    1.3691 O   0  0  0  0  0  0  0  0  0  0  0  0
    3.7520   -3.2906    0.7700 N   0  0  0  0  0  0  0  0  0  0  0  0
    2.8463   -4.0048    1.6340 C   0  0  3  0  0  0  0  0  0  0  0  0
    1.4935   -4.2604    0.9089 C   0  0  0  0  0  0  0  0  0  0  0  0
    1.3046   -4.0432   -0.2912 O   0  0  0  0  0  0  0  0  0  0  0  0
    0.4527   -4.7317    1.6764 N   0  0  0  0  0  0  0  0  0  0  0  0
    0.5243   -5.1013    3.0288 C   0  0  0  0  0  0  0  0  0  0  0  0
   -0.6464   -4.9636    3.7860 C   0  0  0  0  0  0  0  0  0  0  0  0
   -0.6393   -5.2261    5.1582 C   0  0  0  0  0  0  0  0  0  0  0  0
    0.5352   -5.6337    5.7842 C   0  0  0  0  0  0  0  0  0  0  0  0
    1.6935   -5.8237    5.0318 C   0  0  0  0  0  0  0  0  0  0  0  0
    1.6858   -5.5971    3.6456 C   0  0  0  0  0  0  0  0  0  0  0  0
    2.8930   -6.0096    2.8546 C   0  0  0  0  0  0  0  0  0  0  0  0
    3.4482   -5.2980    1.9274 N   0  0  0  0  0  0  0  0  0  0  0  0
    3.5002   -7.3536    3.1361 C   0  0  0  0  0  0  0  0  0  0  0  0
    2.7107   -8.4459    3.5214 C   0  0  0  0  0  0  0  0  0  0  0  0
    3.3052   -9.6802    3.7922 C   0  0  0  0  0  0  0  0  0  0  0  0
    4.6850   -9.8337    3.6628 C   0  0  0  0  0  0  0  0  0  0  0  0
    5.4724   -8.7581    3.2527 C   0  0  0  0  0  0  0  0  0  0  0  0
    4.8821   -7.5215    2.9843 C   0  0  0  0  0  0  0  0  0  0  0  0
    8.2142   -1.2029   -2.7499 H   0  0  0  0  0  0  0  0  0  0  0  0
    8.2016    0.4522   -2.1351 H   0  0  0  0  0  0  0  0  0  0  0  0
    7.2781    0.0126   -3.6260 H   0  0  0  0  0  0  0  0  0  0  0  0
    6.4927    1.9876   -2.6103 H   0  0  0  0  0  0  0  0  0  0  0  0
    4.7597    3.6101   -2.0126 H   0  0  0  0  0  0  0  0  0  0  0  0
    2.8469    2.9382   -0.5898 H   0  0  0  0  0  0  0  0  0  0  0  0
    2.6509    0.6442    0.2236 H   0  0  0  0  0  0  0  0  0  0  0  0
    5.1909   -1.9714   -0.5978 H   0  0  0  0  0  0  0  0  0  0  0  0
    3.9557   -3.7744   -0.0902 H   0  0  0  0  0  0  0  0  0  0  0  0
    2.6897   -3.4080    2.5406 H   0  0  0  0  0  0  0  0  0  0  0  0
   -0.4482   -4.6493    1.2223 H   0  0  0  0  0  0  0  0  0  0  0  0
   -1.5673   -4.6090    3.3283 H   0  0  0  0  0  0  0  0  0  0  0  0
   -1.5476   -5.0933    5.7421 H   0  0  0  0  0  0  0  0  0  0  0  0
    0.5460   -5.8222    6.8552 H   0  0  0  0  0  0  0  0  0  0  0  0
    2.5961   -6.1696    5.5313 H   0  0  0  0  0  0  0  0  0  0  0  0
    1.6309   -8.3578    3.6069 H   0  0  0  0  0  0  0  0  0  0  0  0
    2.6920  -10.5240    4.0998 H   0  0  0  0  0  0  0  0  0  0  0  0
    5.1477  -10.7953    3.8718 H   0  0  0  0  0  0  0  0  0  0  0  0
    6.5467   -8.8809    3.1398 H   0  0  0  0  0  0  0  0  0  0  0  0
    5.5038   -6.6890    2.6617 H   0  0  0  0  0  0  0  0  0  0  0  0
  1  2  1  0  0  0  0
  1 31  1  0  0  0  0
  1 32  1  0  0  0  0
  1 33  1  0  0  0  0
  2  3  1  0  0  0  0
  3  4  2  0  0  0  0
  3  8  1  0  0  0  0
  4  5  1  0  0  0  0
  4 34  1  0  0  0  0
  5  6  2  0  0  0  0
  5 35  1  0  0  0  0
  6  7  1  0  0  0  0
  6 36  1  0  0  0  0
  7  8  2  0  0  0  0
  7 37  1  0  0  0  0
  8  9  1  0  0  0  0
  9 10  1  0  0  0  0
  9 38  1  0  0  0  0
 10 11  2  0  0  0  0
 10 12  1  0  0  0  0
 12 13  1  0  0  0  0
 12 39  1  0  0  0  0
 13 14  1  0  0  0  0
 13 24  1  0  0  0  0
 13 40  1  0  0  0  0
 14 15  2  0  0  0  0
 14 16  1  0  0  0  0
 16 17  1  0  0  0  0
 16 41  1  0  0  0  0
 17 18  2  0  0  0  0
 17 22  1  0  0  0  0
 18 19  1  0  0  0  0
 18 42  1  0  0  0  0
 19 20  2  0  0  0  0
 19 43  1  0  0  0  0
 20 21  1  0  0  0  0
 20 44  1  0  0  0  0
 21 22  2  0  0  0  0
 21 45  1  0  0  0  0
 22 23  1  0  0  0  0
 23 24  2  0  0  0  0
 23 25  1  0  0  0  0
 25 26  2  0  0  0  0
 25 30  1  0  0  0  0
 26 27  1  0  0  0  0
 26 46  1  0  0  0  0
 27 28  2  0  0  0  0
 27 47  1  0  0  0  0
 28 29  1  0  0  0  0
 28 48  1  0  0  0  0
 29 30  2  0  0  0  0
 29 49  1  0  0  0  0
 30 50  1  0  0  0  0
M  END
