
 OpenBabel10072619233D

558564  0  0  1  0  0  0  0  0999 V2000
    5.5494   -2.4256   11.9315 C   0  0  0  0  0  0  0  0  0  0  0  0
    5.8107   -1.0747   11.2903 C   0  0  0  0  0  0  0  0  0  0  0  0
    6.7526   -1.2133   10.0982 C   0  0  0  0  0  0  0  0  0  0  0  0
    7.0196    0.1393    9.4513 C   0  0  0  0  0  0  0  0  0  0  0  0
    7.9636    0.0009    8.2578 C   0  0  0  0  0  0  0  0  0  0  0  0
    8.2093    1.3687    7.6385 C   0  0  0  0  0  0  0  0  0  0  0  0
    9.1275    1.3196    6.4239 C   0  0  0  0  0  0  0  0  0  0  0  0
    9.2683    2.7351    5.8660 C   0  0  0  0  0  0  0  0  0  0  0  0
    9.9686    2.7136    4.6419 O   0  0  0  0  0  0  0  0  0  0  0  0
   10.1083    4.0141    4.0217 C   0  0  0  0  0  0  0  0  0  0  0  0
   11.2377    4.9699    4.7327 C   0  0  3  0  0  0  0  0  0  0  0  0
   12.0145    6.5724    4.0116 C   0  0  3  0  0  0  0  0  0  0  0  0
   11.8797    5.8667    2.8576 C   0  0  3  0  0  0  0  0  0  0  0  0
   13.1416    5.2274    3.6051 C   0  0  3  0  0  0  0  0  0  0  0  0
   12.9454    3.7940    3.8243 C   0  0  3  0  0  0  0  0  0  0  0  0
   12.2321    3.9164    5.0530 O   0  0  0  0  0  0  0  0  0  0  0  0
   14.2433    3.2929    3.7169 O   0  0  0  0  0  0  0  0  0  0  0  0
   14.9775    3.5395    2.4764 C   0  0  3  0  0  0  0  0  0  0  0  0
   15.3506    4.7850    1.7519 C   0  0  3  0  0  0  0  0  0  0  0  0
   14.3643    5.4743    0.9546 O   0  0  0  0  0  0  0  0  0  0  0  0
   13.2385    4.9369    0.3420 C   0  0  3  0  0  0  0  0  0  0  0  0
   13.2014    3.3998    0.7808 C   0  0  3  0  0  0  0  0  0  0  0  0
   14.5900    2.7942    1.2298 C   0  0  3  0  0  0  0  0  0  0  0  0
   15.0318    1.4937    1.5788 O   0  0  0  0  0  0  0  0  0  0  0  0
   16.5031    1.5068    1.6034 C   0  0  0  0  0  0  0  0  0  0  0  0
   17.0734    0.4250    2.4652 C   0  0  0  0  0  0  0  0  0  0  0  0
   17.1658   -0.8021    1.6249 C   0  0  0  0  0  0  0  0  0  0  0  0
   15.7714   -1.3715    1.4029 C   0  0  0  0  0  0  0  0  0  0  0  0
   15.9653   -2.7335    0.8234 C   0  0  0  0  0  0  0  0  0  0  0  0
   14.7289   -3.6064    0.8142 C   0  0  0  0  0  0  0  0  0  0  0  0
   15.1382   -4.8572    0.0424 C   0  0  0  0  0  0  0  0  0  0  0  0
   13.9786   -5.7747   -0.2506 C   0  0  0  0  0  0  0  0  0  0  0  0
   12.2297    2.6121    0.2040 O   0  0  0  0  0  0  0  0  0  0  0  0
   12.1948    1.2973    0.7381 C   0  0  0  0  0  0  0  0  0  0  0  0
   11.5026    0.5415   -0.3540 C   0  0  0  0  0  0  0  0  0  0  0  0
   12.0681    1.0096   -1.7224 C   0  0  0  0  0  0  0  0  0  0  0  0
   13.5939    0.8733   -1.8555 C   0  0  0  0  0  0  0  0  0  0  0  0
   14.0622   -0.5497   -1.6172 C   0  0  0  0  0  0  0  0  0  0  0  0
   13.3487   -1.5001   -2.5595 C   0  0  0  0  0  0  0  0  0  0  0  0
   13.8404   -2.9057   -2.3675 C   0  0  0  0  0  0  0  0  0  0  0  0
   13.0994   -3.8619   -3.2714 C   0  0  0  0  0  0  0  0  0  0  0  0
   12.9941    5.5686   -0.9598 O   0  0  0  0  0  0  0  0  0  0  0  0
   12.5743    7.0502   -1.3474 C   0  0  3  0  0  0  0  0  0  0  0  0
   12.9121    8.6330   -0.5687 C   0  0  3  0  0  0  0  0  0  0  0  0
   12.6365    8.9077    0.7536 O   0  0  0  0  0  0  0  0  0  0  0  0
   11.3194    8.8720    1.1175 C   0  0  3  0  0  0  0  0  0  0  0  0
   10.8713    7.3206    0.2009 C   0  0  3  0  0  0  0  0  0  0  0  0
   11.0942    7.2679   -1.2752 C   0  0  3  0  0  0  0  0  0  0  0  0
   10.2091    6.4348   -1.9969 O   0  0  0  0  0  0  0  0  0  0  0  0
    8.8371    6.8496   -1.7924 C   0  0  0  0  0  0  0  0  0  0  0  0
    8.6113    8.3333   -2.0337 C   0  0  0  0  0  0  0  0  0  0  0  0
    9.1377    8.7110   -3.3852 C   0  0  0  0  0  0  0  0  0  0  0  0
    8.4961    7.7604   -4.3578 C   0  0  0  0  0  0  0  0  0  0  0  0
    8.9189    8.0962   -5.7398 C   0  0  0  0  0  0  0  0  0  0  0  0
    8.1768    7.1496   -6.6479 C   0  0  0  0  0  0  0  0  0  0  0  0
    8.5253    7.5206   -8.0636 C   0  0  0  0  0  0  0  0  0  0  0  0
    7.7603    6.6436   -9.0187 C   0  0  0  0  0  0  0  0  0  0  0  0
    9.8092    6.4143    0.5607 O   0  0  0  0  0  0  0  0  0  0  0  0
    9.7772    5.0214    0.2668 C   0  0  0  0  0  0  0  0  0  0  0  0
    8.3504    4.5812    0.5583 C   0  0  0  0  0  0  0  0  0  0  0  0
    7.9316    3.4172   -0.3000 C   0  0  0  0  0  0  0  0  0  0  0  0
    6.5214    3.0081    0.0825 C   0  0  0  0  0  0  0  0  0  0  0  0
    6.0955    1.8248   -0.7619 C   0  0  0  0  0  0  0  0  0  0  0  0
    4.7196    1.3498   -0.3331 C   0  0  0  0  0  0  0  0  0  0  0  0
    4.2973    0.1421   -1.1549 C   0  0  0  0  0  0  0  0  0  0  0  0
    2.9288   -0.3388   -0.7169 C   0  0  0  0  0  0  0  0  0  0  0  0
   10.7392   10.1674    1.2736 O   0  0  0  0  0  0  0  0  0  0  0  0
   11.1058   10.9063    2.5481 C   0  0  3  0  0  0  0  0  0  0  0  0
   12.5687   11.2583    2.5645 C   0  0  3  0  0  0  0  0  0  0  0  0
   13.3852   10.2580    3.1140 O   0  0  0  0  0  0  0  0  0  0  0  0
   13.2816    9.8663    4.4684 C   0  0  3  0  0  0  0  0  0  0  0  0
   11.8133    9.5852    4.7484 C   0  0  3  0  0  0  0  0  0  0  0  0
   10.7890   10.5438    4.0780 C   0  0  3  0  0  0  0  0  0  0  0  0
    9.4146   10.2546    4.3193 O   0  0  0  0  0  0  0  0  0  0  0  0
    9.1347    9.9746    5.6918 C   0  0  0  0  0  0  0  0  0  0  0  0
    9.7717   10.9800    6.6813 C   0  0  0  0  0  0  0  0  0  0  0  0
    9.0609   12.2774    6.5760 C   0  0  0  0  0  0  0  0  0  0  0  0
    9.9217   13.4095    7.0748 C   0  0  0  0  0  0  0  0  0  0  0  0
    9.0350   14.6121    6.9111 C   0  0  0  0  0  0  0  0  0  0  0  0
    9.5703   15.8322    7.5975 C   0  0  0  0  0  0  0  0  0  0  0  0
    8.5907   16.9657    7.3392 C   0  0  0  0  0  0  0  0  0  0  0  0
    9.0239   18.2062    8.0785 C   0  0  0  0  0  0  0  0  0  0  0  0
   11.4511    8.6652    5.7759 O   0  0  0  0  0  0  0  0  0  0  0  0
   11.3412    8.5633    7.1585 C   0  0  0  0  0  0  0  0  0  0  0  0
   12.4782    8.4927    8.1065 C   0  0  0  0  0  0  0  0  0  0  0  0
   13.7567    9.0741    7.7731 C   0  0  0  0  0  0  0  0  0  0  0  0
   13.9341   10.5377    7.8798 C   0  0  0  0  0  0  0  0  0  0  0  0
   13.8082   11.1485    9.2134 C   0  0  0  0  0  0  0  0  0  0  0  0
   14.0038   12.6361    8.9638 C   0  0  0  0  0  0  0  0  0  0  0  0
   13.7048   13.3245   10.2608 C   0  0  0  0  0  0  0  0  0  0  0  0
   13.7400   14.8174   10.0840 C   0  0  0  0  0  0  0  0  0  0  0  0
   14.0502   10.6145    5.3967 O   0  0  0  0  0  0  0  0  0  0  0  0
   15.5344   10.3938    5.5808 C   0  0  3  0  0  0  0  0  0  0  0  0
   16.0708   10.6938    4.2646 C   0  0  3  0  0  0  0  0  0  0  0  0
   15.5756    9.5961    3.5496 O   0  0  0  0  0  0  0  0  0  0  0  0
   16.1805    8.3948    3.7760 C   0  0  3  0  0  0  0  0  0  0  0  0
   15.9438    7.8604    5.1382 C   0  0  3  0  0  0  0  0  0  0  0  0
   16.2481    9.0190    6.0456 C   0  0  3  0  0  0  0  0  0  0  0  0
   16.0120    8.6693    7.3973 O   0  0  0  0  0  0  0  0  0  0  0  0
   16.2281    7.3077    7.7968 C   0  0  0  0  0  0  0  0  0  0  0  0
   17.6917    7.1363    7.9020 C   0  0  0  0  0  0  0  0  0  0  0  0
   18.1037    8.1145    8.9465 C   0  0  0  0  0  0  0  0  0  0  0  0
   19.5301    8.4623    8.7094 C   0  0  0  0  0  0  0  0  0  0  0  0
   19.8324    9.5335    9.7086 C   0  0  0  0  0  0  0  0  0  0  0  0
   21.3011    9.8122    9.6667 C   0  0  0  0  0  0  0  0  0  0  0  0
   21.6186   10.8125   10.7504 C   0  0  0  0  0  0  0  0  0  0  0  0
   23.1072   11.0408   10.7841 C   0  0  0  0  0  0  0  0  0  0  0  0
   16.7522    6.6946    5.4021 O   0  0  0  0  0  0  0  0  0  0  0  0
   16.5721    5.6148    4.5471 C   0  0  0  0  0  0  0  0  0  0  0  0
   17.2869    4.3606    4.8988 C   0  0  0  0  0  0  0  0  0  0  0  0
   16.5670    3.4665    5.8893 C   0  0  0  0  0  0  0  0  0  0  0  0
   17.1088    2.0461    5.7872 C   0  0  0  0  0  0  0  0  0  0  0  0
   18.6551    1.9456    5.6590 C   0  0  0  0  0  0  0  0  0  0  0  0
   19.4466    2.6230    6.7826 C   0  0  0  0  0  0  0  0  0  0  0  0
   18.9434    2.2736    8.1742 C   0  0  0  0  0  0  0  0  0  0  0  0
   19.6397    3.0910    9.2438 C   0  0  0  0  0  0  0  0  0  0  0  0
   17.4264    8.7488    3.3448 O   0  0  0  0  0  0  0  0  0  0  0  0
   17.4476    9.0848    1.9798 C   0  0  3  0  0  0  0  0  0  0  0  0
   16.3223    9.9220    1.2807 C   0  0  3  0  0  0  0  0  0  0  0  0
   14.8622    9.4400    1.3655 O   0  0  0  0  0  0  0  0  0  0  0  0
   14.4618    7.9574    1.7787 C   0  0  3  0  0  0  0  0  0  0  0  0
   13.6189    7.4283    3.3091 O   0  0  0  0  0  0  0  0  0  0  0  0
   15.9614    7.5074    1.0082 C   0  0  3  0  0  0  0  0  0  0  0  0
   17.4546    7.7733    1.3615 C   0  0  3  0  0  0  0  0  0  0  0  0
   18.0582    6.7516    2.1679 O   0  0  0  0  0  0  0  0  0  0  0  0
   19.4661    6.6577    2.2213 C   0  0  0  0  0  0  0  0  0  0  0  0
   20.1038    7.7796    3.0144 C   0  0  0  0  0  0  0  0  0  0  0  0
   19.5809    7.8354    4.4501 C   0  0  0  0  0  0  0  0  0  0  0  0
   20.0166    6.6987    5.3324 C   0  0  0  0  0  0  0  0  0  0  0  0
   21.4937    6.6366    5.5209 C   0  0  0  0  0  0  0  0  0  0  0  0
   21.9791    7.9781    6.0290 C   0  0  0  0  0  0  0  0  0  0  0  0
   23.4733    7.9701    6.1773 C   0  0  0  0  0  0  0  0  0  0  0  0
   23.9079    9.3041    6.7394 C   0  0  0  0  0  0  0  0  0  0  0  0
   16.2335    7.5519   -0.4058 O   0  0  0  0  0  0  0  0  0  0  0  0
   15.2843    7.4384   -1.3743 C   0  0  0  0  0  0  0  0  0  0  0  0
   15.1347    8.7085   -2.2034 C   0  0  0  0  0  0  0  0  0  0  0  0
   16.2842    8.9988   -3.0951 C   0  0  0  0  0  0  0  0  0  0  0  0
   16.0085    8.3178   -4.3876 C   0  0  0  0  0  0  0  0  0  0  0  0
   17.1745    8.6159   -5.2995 C   0  0  0  0  0  0  0  0  0  0  0  0
   17.1211    7.7806   -6.5448 C   0  0  0  0  0  0  0  0  0  0  0  0
   15.7398    7.7549   -7.1851 C   0  0  0  0  0  0  0  0  0  0  0  0
   15.8543    7.0038   -8.4777 C   0  0  0  0  0  0  0  0  0  0  0  0
   17.0053   10.2911   -0.1098 C   0  0  0  0  0  0  0  0  0  0  0  0
   16.4719   11.3361   -0.9077 O   0  0  0  0  0  0  0  0  0  0  0  0
   16.5368   12.5631   -0.2524 C   0  0  0  0  0  0  0  0  0  0  0  0
   17.8808   13.1471    0.0172 C   0  0  0  0  0  0  0  0  0  0  0  0
   18.5914   13.5546   -1.2087 C   0  0  0  0  0  0  0  0  0  0  0  0
   19.9215   14.1207   -0.7652 C   0  0  0  0  0  0  0  0  0  0  0  0
   20.5110   14.7316   -1.9974 C   0  0  0  0  0  0  0  0  0  0  0  0
   21.8739   15.2934   -1.7108 C   0  0  0  0  0  0  0  0  0  0  0  0
   22.3992   15.8566   -3.0147 C   0  0  0  0  0  0  0  0  0  0  0  0
   23.7801   16.4210   -2.8108 C   0  0  0  0  0  0  0  0  0  0  0  0
   17.5711   11.0261    4.2802 C   0  0  0  0  0  0  0  0  0  0  0  0
   17.9582   11.7095    3.0925 O   0  0  0  0  0  0  0  0  0  0  0  0
   17.1892   12.8897    2.9631 C   0  0  0  0  0  0  0  0  0  0  0  0
   17.1622   13.7610    4.1710 C   0  0  0  0  0  0  0  0  0  0  0  0
   18.6212   14.0799    4.2907 C   0  0  0  0  0  0  0  0  0  0  0  0
   18.9182   14.7033    5.5963 C   0  0  0  0  0  0  0  0  0  0  0  0
   20.4081   14.9185    5.5687 C   0  0  0  0  0  0  0  0  0  0  0  0
   20.7626   15.6264    6.8346 C   0  0  0  0  0  0  0  0  0  0  0  0
   22.2389   15.9306    6.8454 C   0  0  0  0  0  0  0  0  0  0  0  0
   22.5409   16.6724    8.1231 C   0  0  0  0  0  0  0  0  0  0  0  0
   12.8574   12.5427    3.3081 C   0  0  0  0  0  0  0  0  0  0  0  0
   14.1781   12.9428    3.0283 O   0  0  0  0  0  0  0  0  0  0  0  0
   14.3943   13.1348    1.6417 C   0  0  0  0  0  0  0  0  0  0  0  0
   13.5075   14.1704    1.0826 C   0  0  0  0  0  0  0  0  0  0  0  0
   13.8076   15.3438    1.9840 C   0  0  0  0  0  0  0  0  0  0  0  0
   12.8069   16.3944    1.7262 C   0  0  0  0  0  0  0  0  0  0  0  0
   13.0696   17.4744    2.7382 C   0  0  0  0  0  0  0  0  0  0  0  0
   12.0942   18.5613    2.4160 C   0  0  0  0  0  0  0  0  0  0  0  0
   12.2963   19.7322    3.3397 C   0  0  0  0  0  0  0  0  0  0  0  0
   11.3074   20.7994    2.9390 C   0  0  0  0  0  0  0  0  0  0  0  0
   12.3231    9.8950   -1.1334 C   0  0  0  0  0  0  0  0  0  0  0  0
   12.7430   10.1862   -2.4068 O   0  0  0  0  0  0  0  0  0  0  0  0
   13.0201   11.5572   -2.3512 C   0  0  0  0  0  0  0  0  0  0  0  0
   14.0053   11.8280   -3.4172 C   0  0  0  0  0  0  0  0  0  0  0  0
   13.5532   13.1325   -3.9603 C   0  0  0  0  0  0  0  0  0  0  0  0
   14.3618   13.4190   -5.1722 C   0  0  0  0  0  0  0  0  0  0  0  0
   13.7780   14.6845   -5.7194 C   0  0  0  0  0  0  0  0  0  0  0  0
   14.5324   15.0417   -6.9603 C   0  0  0  0  0  0  0  0  0  0  0  0
   13.9537   16.3257   -7.5022 C   0  0  0  0  0  0  0  0  0  0  0  0
   14.7121   16.7077   -8.7459 C   0  0  0  0  0  0  0  0  0  0  0  0
   16.7516    4.6923    1.0627 C   0  0  0  0  0  0  0  0  0  0  0  0
   16.9406    4.2365   -0.2507 O   0  0  0  0  0  0  0  0  0  0  0  0
   18.1486    4.8924   -0.7173 C   0  0  0  0  0  0  0  0  0  0  0  0
   18.4107    4.4645   -2.1168 C   0  0  0  0  0  0  0  0  0  0  0  0
   17.3031    5.0026   -2.9885 C   0  0  0  0  0  0  0  0  0  0  0  0
   17.4007    4.3289   -4.3229 C   0  0  0  0  0  0  0  0  0  0  0  0
   16.1715    4.5991   -5.1596 C   0  0  0  0  0  0  0  0  0  0  0  0
   16.3677    3.9323   -6.5004 C   0  0  0  0  0  0  0  0  0  0  0  0
   15.1748    4.1198   -7.4217 C   0  0  0  0  0  0  0  0  0  0  0  0
   15.5282    3.6273   -8.8080 C   0  0  0  0  0  0  0  0  0  0  0  0
   13.7819    5.6224    5.0182 O   0  0  0  0  0  0  0  0  0  0  0  0
   13.2095    6.1064    6.2449 C   0  0  0  0  0  0  0  0  0  0  0  0
   12.2885    5.3815    7.2642 C   0  0  0  0  0  0  0  0  0  0  0  0
   12.9677    4.3292    8.0773 C   0  0  0  0  0  0  0  0  0  0  0  0
   11.9930    3.9380    9.1896 C   0  0  0  0  0  0  0  0  0  0  0  0
   12.7235    3.1112   10.2076 C   0  0  0  0  0  0  0  0  0  0  0  0
   13.7156    4.0093   10.9302 C   0  0  0  0  0  0  0  0  0  0  0  0
   14.7342    3.2075   11.7045 C   0  0  0  0  0  0  0  0  0  0  0  0
   15.7893    4.1558   12.2405 C   0  0  0  0  0  0  0  0  0  0  0  0
   11.3069    7.0274    2.3786 O   0  0  0  0  0  0  0  0  0  0  0  0
    9.8276    7.2924    2.6653 C   0  0  0  0  0  0  0  0  0  0  0  0
    9.0815    8.3546    1.7097 C   0  0  0  0  0  0  0  0  0  0  0  0
    7.6794    8.0946    1.3712 C   0  0  0  0  0  0  0  0  0  0  0  0
    6.9685    9.1872    2.1212 C   0  0  0  0  0  0  0  0  0  0  0  0
    5.5464    8.8200    2.2336 C   0  0  0  0  0  0  0  0  0  0  0  0
    5.5031    7.5550    3.0613 C   0  0  0  0  0  0  0  0  0  0  0  0
    4.0805    7.1190    3.1752 C   0  0  0  0  0  0  0  0  0  0  0  0
    4.0444    5.7116    3.7015 C   0  0  0  0  0  0  0  0  0  0  0  0
    4.8740   -2.3172   12.7847 H   0  0  0  0  0  0  0  0  0  0  0  0
    6.4825   -2.8737   12.2874 H   0  0  0  0  0  0  0  0  0  0  0  0
    5.0895   -3.1134   11.2150 H   0  0  0  0  0  0  0  0  0  0  0  0
    6.2458   -0.3970   12.0339 H   0  0  0  0  0  0  0  0  0  0  0  0
    4.8599   -0.6354   10.9669 H   0  0  0  0  0  0  0  0  0  0  0  0
    6.3141   -1.8933    9.3581 H   0  0  0  0  0  0  0  0  0  0  0  0
    7.7006   -1.6560   10.4259 H   0  0  0  0  0  0  0  0  0  0  0  0
    7.4564    0.8227   10.1899 H   0  0  0  0  0  0  0  0  0  0  0  0
    6.0723    0.5848    9.1226 H   0  0  0  0  0  0  0  0  0  0  0  0
    7.5236   -0.6731    7.5134 H   0  0  0  0  0  0  0  0  0  0  0  0
    8.9132   -0.4410    8.5811 H   0  0  0  0  0  0  0  0  0  0  0  0
    8.6431    2.0370    8.3917 H   0  0  0  0  0  0  0  0  0  0  0  0
    7.2474    1.8028    7.3394 H   0  0  0  0  0  0  0  0  0  0  0  0
    8.7252    0.6417    5.6607 H   0  0  0  0  0  0  0  0  0  0  0  0
   10.1102    0.9159    6.6984 H   0  0  0  0  0  0  0  0  0  0  0  0
    9.8011    3.3589    6.5854 H   0  0  0  0  0  0  0  0  0  0  0  0
    8.2771    3.1561    5.6812 H   0  0  0  0  0  0  0  0  0  0  0  0
    9.1388    4.4984    3.9289 H   0  0  0  0  0  0  0  0  0  0  0  0
   10.4035    3.6775    3.0290 H   0  0  0  0  0  0  0  0  0  0  0  0
   10.6138    5.3470    5.5454 H   0  0  0  0  0  0  0  0  0  0  0  0
   11.3458    7.2845    4.3970 H   0  0  0  0  0  0  0  0  0  0  0  0
   11.1909    5.1398    2.5404 H   0  0  0  0  0  0  0  0  0  0  0  0
   13.9067    5.5031    2.9626 H   0  0  0  0  0  0  0  0  0  0  0  0
   12.3147    3.1327    3.2541 H   0  0  0  0  0  0  0  0  0  0  0  0
   15.9096    3.2993    2.9502 H   0  0  0  0  0  0  0  0  0  0  0  0
   15.5506    5.4690    2.5520 H   0  0  0  0  0  0  0  0  0  0  0  0
   12.3711    5.2601    0.8584 H   0  0  0  0  0  0  0  0  0  0  0  0
   12.6995    3.5564    1.6993 H   0  0  0  0  0  0  0  0  0  0  0  0
   15.1658    2.9963    0.3295 H   0  0  0  0  0  0  0  0  0  0  0  0
   16.9807    2.3758    2.0351 H   0  0  0  0  0  0  0  0  0  0  0  0
   16.8599    1.5080    0.5769 H   0  0  0  0  0  0  0  0  0  0  0  0
   16.4628    0.2446    3.3625 H   0  0  0  0  0  0  0  0  0  0  0  0
   18.0952    0.6806    2.7945 H   0  0  0  0  0  0  0  0  0  0  0  0
   17.8172   -1.5136    2.1305 H   0  0  0  0  0  0  0  0  0  0  0  0
   17.6299   -0.5422    0.6645 H   0  0  0  0  0  0  0  0  0  0  0  0
   15.2365   -0.7349    0.7033 H   0  0  0  0  0  0  0  0  0  0  0  0
   15.1801   -1.3913    2.3239 H   0  0  0  0  0  0  0  0  0  0  0  0
   16.7170   -3.2452    1.4315 H   0  0  0  0  0  0  0  0  0  0  0  0
   16.3887   -2.6128   -0.1812 H   0  0  0  0  0  0  0  0  0  0  0  0
   13.8367   -3.1230    0.4017 H   0  0  0  0  0  0  0  0  0  0  0  0
   14.4565   -3.8629    1.8419 H   0  0  0  0  0  0  0  0  0  0  0  0
   15.8965   -5.3909    0.6254 H   0  0  0  0  0  0  0  0  0  0  0  0
   15.6195   -4.5806   -0.9049 H   0  0  0  0  0  0  0  0  0  0  0  0
   13.4560   -6.0450    0.6680 H   0  0  0  0  0  0  0  0  0  0  0  0
   14.3518   -6.6815   -0.7326 H   0  0  0  0  0  0  0  0  0  0  0  0
   13.2621   -5.3061   -0.9282 H   0  0  0  0  0  0  0  0  0  0  0  0
   11.7055    1.2541    1.7163 H   0  0  0  0  0  0  0  0  0  0  0  0
   13.1785    0.8648    0.8627 H   0  0  0  0  0  0  0  0  0  0  0  0
   10.4360    0.7665   -0.3070 H   0  0  0  0  0  0  0  0  0  0  0  0
   11.6128   -0.5318   -0.1836 H   0  0  0  0  0  0  0  0  0  0  0  0
   11.8172    2.0643   -1.9075 H   0  0  0  0  0  0  0  0  0  0  0  0
   11.5573    0.4743   -2.5183 H   0  0  0  0  0  0  0  0  0  0  0  0
   14.1315    1.5431   -1.1814 H   0  0  0  0  0  0  0  0  0  0  0  0
   13.8899    1.2049   -2.8526 H   0  0  0  0  0  0  0  0  0  0  0  0
   13.8353   -0.8519   -0.5921 H   0  0  0  0  0  0  0  0  0  0  0  0
   15.1484   -0.6075   -1.7374 H   0  0  0  0  0  0  0  0  0  0  0  0
   13.4720   -1.1722   -3.5949 H   0  0  0  0  0  0  0  0  0  0  0  0
   12.2779   -1.5082   -2.3310 H   0  0  0  0  0  0  0  0  0  0  0  0
   13.6401   -3.1683   -1.3423 H   0  0  0  0  0  0  0  0  0  0  0  0
   14.9200   -2.9686   -2.5114 H   0  0  0  0  0  0  0  0  0  0  0  0
   12.0212   -3.8296   -3.0769 H   0  0  0  0  0  0  0  0  0  0  0  0
   13.4454   -4.8832   -3.0995 H   0  0  0  0  0  0  0  0  0  0  0  0
   13.2687   -3.6009   -4.3182 H   0  0  0  0  0  0  0  0  0  0  0  0
   13.0199    7.0393   -2.3549 H   0  0  0  0  0  0  0  0  0  0  0  0
   13.9491    8.8277   -0.4736 H   0  0  0  0  0  0  0  0  0  0  0  0
   11.3904    8.7973    2.1686 H   0  0  0  0  0  0  0  0  0  0  0  0
   11.7294    6.7830    0.5283 H   0  0  0  0  0  0  0  0  0  0  0  0
   10.9330    8.2342   -1.6891 H   0  0  0  0  0  0  0  0  0  0  0  0
    8.4528    6.6730   -0.8048 H   0  0  0  0  0  0  0  0  0  0  0  0
    8.2163    6.1791   -2.3778 H   0  0  0  0  0  0  0  0  0  0  0  0
    9.0869    8.9420   -1.2628 H   0  0  0  0  0  0  0  0  0  0  0  0
    7.5480    8.5663   -1.9743 H   0  0  0  0  0  0  0  0  0  0  0  0
   10.2254    8.6204   -3.4694 H   0  0  0  0  0  0  0  0  0  0  0  0
    8.8897    9.7537   -3.5800 H   0  0  0  0  0  0  0  0  0  0  0  0
    7.4058    7.7966   -4.2443 H   0  0  0  0  0  0  0  0  0  0  0  0
    8.8105    6.7226   -4.1853 H   0  0  0  0  0  0  0  0  0  0  0  0
   10.0030    7.9630   -5.8363 H   0  0  0  0  0  0  0  0  0  0  0  0
    8.6772    9.1405   -5.9538 H   0  0  0  0  0  0  0  0  0  0  0  0
    7.0953    7.2298   -6.4728 H   0  0  0  0  0  0  0  0  0  0  0  0
    8.4559    6.1094   -6.4285 H   0  0  0  0  0  0  0  0  0  0  0  0
    9.6047    7.4074   -8.2130 H   0  0  0  0  0  0  0  0  0  0  0  0
    8.2751    8.5740   -8.2323 H   0  0  0  0  0  0  0  0  0  0  0  0
    8.0198    5.5922   -8.8630 H   0  0  0  0  0  0  0  0  0  0  0  0
    8.0025    6.9240  -10.0439 H   0  0  0  0  0  0  0  0  0  0  0  0
    6.6832    6.7597   -8.8627 H   0  0  0  0  0  0  0  0  0  0  0  0
   10.4077    4.4457    0.9239 H   0  0  0  0  0  0  0  0  0  0  0  0
   10.0893    4.7606   -0.7392 H   0  0  0  0  0  0  0  0  0  0  0  0
    7.6431    5.3881    0.3708 H   0  0  0  0  0  0  0  0  0  0  0  0
    8.2395    4.3568    1.6245 H   0  0  0  0  0  0  0  0  0  0  0  0
    8.6275    2.5829   -0.1770 H   0  0  0  0  0  0  0  0  0  0  0  0
    7.9514    3.7174   -1.3545 H   0  0  0  0  0  0  0  0  0  0  0  0
    5.8264    3.8447   -0.0666 H   0  0  0  0  0  0  0  0  0  0  0  0
    6.4850    2.7502    1.1478 H   0  0  0  0  0  0  0  0  0  0  0  0
    6.8244    1.0138   -0.6492 H   0  0  0  0  0  0  0  0  0  0  0  0
    6.0851    2.1108   -1.8207 H   0  0  0  0  0  0  0  0  0  0  0  0
    3.9927    2.1620   -0.4555 H   0  0  0  0  0  0  0  0  0  0  0  0
    4.7369    1.0883    0.7321 H   0  0  0  0  0  0  0  0  0  0  0  0
    5.0283   -0.6656   -1.0326 H   0  0  0  0  0  0  0  0  0  0  0  0
    4.2751    0.4041   -2.2189 H   0  0  0  0  0  0  0  0  0  0  0  0
    2.9401   -0.6245    0.3397 H   0  0  0  0  0  0  0  0  0  0  0  0
    2.6260   -1.2074   -1.3067 H   0  0  0  0  0  0  0  0  0  0  0  0
    2.1816    0.4495   -0.8511 H   0  0  0  0  0  0  0  0  0  0  0  0
   10.5373   11.8169    2.3720 H   0  0  0  0  0  0  0  0  0  0  0  0
   12.8439   11.3284    1.5187 H   0  0  0  0  0  0  0  0  0  0  0  0
   13.7274    8.9126    4.5739 H   0  0  0  0  0  0  0  0  0  0  0  0
   11.7197    8.9015    3.9314 H   0  0  0  0  0  0  0  0  0  0  0  0
   10.9412   11.5025    4.5672 H   0  0  0  0  0  0  0  0  0  0  0  0
    9.4178    8.9349    5.8453 H   0  0  0  0  0  0  0  0  0  0  0  0
    8.0564    9.9730    5.8168 H   0  0  0  0  0  0  0  0  0  0  0  0
   10.8467   11.1243    6.5256 H   0  0  0  0  0  0  0  0  0  0  0  0
    9.6640   10.6953    7.7359 H   0  0  0  0  0  0  0  0  0  0  0  0
    8.1779   12.1845    7.2011 H   0  0  0  0  0  0  0  0  0  0  0  0
    8.7384   12.4574    5.5487 H   0  0  0  0  0  0  0  0  0  0  0  0
   10.8254   13.5002    6.4628 H   0  0  0  0  0  0  0  0  0  0  0  0
   10.2356   13.2559    8.1154 H   0  0  0  0  0  0  0  0  0  0  0  0
    8.0490   14.3866    7.3334 H   0  0  0  0  0  0  0  0  0  0  0  0
    8.8954   14.7996    5.8385 H   0  0  0  0  0  0  0  0  0  0  0  0
   10.5651   16.0725    7.2109 H   0  0  0  0  0  0  0  0  0  0  0  0
    9.6613   15.6360    8.6721 H   0  0  0  0  0  0  0  0  0  0  0  0
    7.5828   16.6754    7.6635 H   0  0  0  0  0  0  0  0  0  0  0  0
    8.5330   17.1670    6.2624 H   0  0  0  0  0  0  0  0  0  0  0  0
    9.0361   18.0200    9.1566 H   0  0  0  0  0  0  0  0  0  0  0  0
    8.3311   19.0246    7.8728 H   0  0  0  0  0  0  0  0  0  0  0  0
   10.0279   18.5051    7.7650 H   0  0  0  0  0  0  0  0  0  0  0  0
   10.8763    7.5723    7.2730 H   0  0  0  0  0  0  0  0  0  0  0  0
   10.6118    9.1655    7.6317 H   0  0  0  0  0  0  0  0  0  0  0  0
   12.8157    7.4829    8.1353 H   0  0  0  0  0  0  0  0  0  0  0  0
   12.1680    8.7376    9.1167 H   0  0  0  0  0  0  0  0  0  0  0  0
   14.0331    8.6726    6.7962 H   0  0  0  0  0  0  0  0  0  0  0  0
   14.4022    8.6322    8.5286 H   0  0  0  0  0  0  0  0  0  0  0  0
   13.2636   11.0667    7.2066 H   0  0  0  0  0  0  0  0  0  0  0  0
   14.9711   10.7380    7.6564 H   0  0  0  0  0  0  0  0  0  0  0  0
   14.5838   10.7592    9.8826 H   0  0  0  0  0  0  0  0  0  0  0  0
   12.8232   10.9222    9.6173 H   0  0  0  0  0  0  0  0  0  0  0  0
   13.3298   12.9918    8.1695 H   0  0  0  0  0  0  0  0  0  0  0  0
   15.0243   12.8521    8.6105 H   0  0  0  0  0  0  0  0  0  0  0  0
   14.4336   12.9988   11.0098 H   0  0  0  0  0  0  0  0  0  0  0  0
   12.7103   13.0136   10.5982 H   0  0  0  0  0  0  0  0  0  0  0  0
   14.7314   15.1448    9.7582 H   0  0  0  0  0  0  0  0  0  0  0  0
   13.4981   15.2917   11.0351 H   0  0  0  0  0  0  0  0  0  0  0  0
   13.0071   15.1322    9.3339 H   0  0  0  0  0  0  0  0  0  0  0  0
   15.8775   11.1934    6.2432 H   0  0  0  0  0  0  0  0  0  0  0  0
   15.5134   11.5330    3.8965 H   0  0  0  0  0  0  0  0  0  0  0  0
   15.8509    7.5668    3.1929 H   0  0  0  0  0  0  0  0  0  0  0  0
   14.8904    7.6177    5.3465 H   0  0  0  0  0  0  0  0  0  0  0  0
   17.3247    9.1829    6.0000 H   0  0  0  0  0  0  0  0  0  0  0  0
   15.7998    6.5604    7.1482 H   0  0  0  0  0  0  0  0  0  0  0  0
   15.7461    7.1350    8.7591 H   0  0  0  0  0  0  0  0  0  0  0  0
   18.1331    7.4674    6.9713 H   0  0  0  0  0  0  0  0  0  0  0  0
   18.0016    6.1082    8.0982 H   0  0  0  0  0  0  0  0  0  0  0  0
   17.9002    7.7082    9.9385 H   0  0  0  0  0  0  0  0  0  0  0  0
   17.5363    9.0519    8.8758 H   0  0  0  0  0  0  0  0  0  0  0  0
   19.6704    8.8569    7.6930 H   0  0  0  0  0  0  0  0  0  0  0  0
   20.1573    7.5720    8.8199 H   0  0  0  0  0  0  0  0  0  0  0  0
   19.5219    9.2034   10.7069 H   0  0  0  0  0  0  0  0  0  0  0  0
   19.2579   10.4391    9.4703 H   0  0  0  0  0  0  0  0  0  0  0  0
   21.5699   10.2030    8.6790 H   0  0  0  0  0  0  0  0  0  0  0  0
   21.8564    8.8784    9.8196 H   0  0  0  0  0  0  0  0  0  0  0  0
   21.2710   10.4339   11.7192 H   0  0  0  0  0  0  0  0  0  0  0  0
   21.0852   11.7499   10.5547 H   0  0  0  0  0  0  0  0  0  0  0  0
   23.6288   10.1008   10.9911 H   0  0  0  0  0  0  0  0  0  0  0  0
   23.3547   11.7619   11.5633 H   0  0  0  0  0  0  0  0  0  0  0  0
   23.4544   11.4210    9.8188 H   0  0  0  0  0  0  0  0  0  0  0  0
   16.9682    5.8959    3.5989 H   0  0  0  0  0  0  0  0  0  0  0  0
   15.5553    5.3594    4.4067 H   0  0  0  0  0  0  0  0  0  0  0  0
   18.2372    4.6114    5.3256 H   0  0  0  0  0  0  0  0  0  0  0  0
   17.4634    3.8438    3.9544 H   0  0  0  0  0  0  0  0  0  0  0  0
   15.4767    3.4614    5.7393 H   0  0  0  0  0  0  0  0  0  0  0  0
   16.7183    3.8450    6.9040 H   0  0  0  0  0  0  0  0  0  0  0  0
   16.6557    1.5850    4.9110 H   0  0  0  0  0  0  0  0  0  0  0  0
   16.7385    1.4668    6.6423 H   0  0  0  0  0  0  0  0  0  0  0  0
   18.9849    2.3843    4.6983 H   0  0  0  0  0  0  0  0  0  0  0  0
   18.9328    0.8924    5.5885 H   0  0  0  0  0  0  0  0  0  0  0  0
   19.4404    3.7076    6.6498 H   0  0  0  0  0  0  0  0  0  0  0  0
   20.4960    2.3349    6.6874 H   0  0  0  0  0  0  0  0  0  0  0  0
   19.0793    1.2033    8.3635 H   0  0  0  0  0  0  0  0  0  0  0  0
   17.8771    2.4874    8.2460 H   0  0  0  0  0  0  0  0  0  0  0  0
   20.6753    2.7672    9.3723 H   0  0  0  0  0  0  0  0  0  0  0  0
   19.1221    2.9616   10.1969 H   0  0  0  0  0  0  0  0  0  0  0  0
   19.6342    4.1564    8.9911 H   0  0  0  0  0  0  0  0  0  0  0  0
   18.4042    9.5916    1.8469 H   0  0  0  0  0  0  0  0  0  0  0  0
   16.2473   10.8529    1.7993 H   0  0  0  0  0  0  0  0  0  0  0  0
   13.7883    7.4932    1.0949 H   0  0  0  0  0  0  0  0  0  0  0  0
   15.8504    6.5717    1.3177 H   0  0  0  0  0  0  0  0  0  0  0  0
   18.0797    7.8201    0.4613 H   0  0  0  0  0  0  0  0  0  0  0  0
   19.8816    6.5767    1.2194 H   0  0  0  0  0  0  0  0  0  0  0  0
   19.6705    5.7044    2.7112 H   0  0  0  0  0  0  0  0  0  0  0  0
   19.9166    8.7229    2.5043 H   0  0  0  0  0  0  0  0  0  0  0  0
   21.1853    7.6671    3.0047 H   0  0  0  0  0  0  0  0  0  0  0  0
   18.5210    7.7095    4.4820 H   0  0  0  0  0  0  0  0  0  0  0  0
   19.7719    8.8158    4.8939 H   0  0  0  0  0  0  0  0  0  0  0  0
   19.6611    5.7664    4.9180 H   0  0  0  0  0  0  0  0  0  0  0  0
   19.5602    6.7890    6.3071 H   0  0  0  0  0  0  0  0  0  0  0  0
   21.9664    6.3660    4.5736 H   0  0  0  0  0  0  0  0  0  0  0  0
   21.7109    5.8427    6.2409 H   0  0  0  0  0  0  0  0  0  0  0  0
   21.4986    8.2040    6.9831 H   0  0  0  0  0  0  0  0  0  0  0  0
   21.7158    8.7930    5.3457 H   0  0  0  0  0  0  0  0  0  0  0  0
   23.9268    7.8026    5.1947 H   0  0  0  0  0  0  0  0  0  0  0  0
   23.7711    7.1520    6.8389 H   0  0  0  0  0  0  0  0  0  0  0  0
   23.5722   10.1258    6.0969 H   0  0  0  0  0  0  0  0  0  0  0  0
   24.9931    9.3394    6.8231 H   0  0  0  0  0  0  0  0  0  0  0  0
   23.4751    9.4559    7.7314 H   0  0  0  0  0  0  0  0  0  0  0  0
   14.4513    7.1390   -0.8107 H   0  0  0  0  0  0  0  0  0  0  0  0
   15.4692    6.5964   -2.0061 H   0  0  0  0  0  0  0  0  0  0  0  0
   15.0268    9.6107   -1.6047 H   0  0  0  0  0  0  0  0  0  0  0  0
   14.2365    8.6085   -2.8090 H   0  0  0  0  0  0  0  0  0  0  0  0
   17.2279    8.6691   -2.6711 H   0  0  0  0  0  0  0  0  0  0  0  0
   16.3612   10.0707   -3.2669 H   0  0  0  0  0  0  0  0  0  0  0  0
   15.0663    8.6841   -4.8102 H   0  0  0  0  0  0  0  0  0  0  0  0
   15.8674    7.2572   -4.1960 H   0  0  0  0  0  0  0  0  0  0  0  0
   18.1256    8.4352   -4.7857 H   0  0  0  0  0  0  0  0  0  0  0  0
   17.1609    9.6784   -5.5460 H   0  0  0  0  0  0  0  0  0  0  0  0
   17.4383    6.7638   -6.2898 H   0  0  0  0  0  0  0  0  0  0  0  0
   17.8529    8.1672   -7.2524 H   0  0  0  0  0  0  0  0  0  0  0  0
   15.3397    8.7609   -7.3360 H   0  0  0  0  0  0  0  0  0  0  0  0
   15.0275    7.2126   -6.5577 H   0  0  0  0  0  0  0  0  0  0  0  0
   16.4610    7.5511   -9.1912 H   0  0  0  0  0  0  0  0  0  0  0  0
   14.8745    6.8079   -8.9193 H   0  0  0  0  0  0  0  0  0  0  0  0
   16.3452    6.0598   -8.2439 H   0  0  0  0  0  0  0  0  0  0  0  0
   17.0991    9.4433   -0.7606 H   0  0  0  0  0  0  0  0  0  0  0  0
   18.0610   10.5383    0.0587 H   0  0  0  0  0  0  0  0  0  0  0  0
   16.1929   12.3519    0.7234 H   0  0  0  0  0  0  0  0  0  0  0  0
   15.8720   13.2880   -0.7233 H   0  0  0  0  0  0  0  0  0  0  0  0
   18.5148   12.4686    0.6028 H   0  0  0  0  0  0  0  0  0  0  0  0
   17.7007   14.0679    0.5791 H   0  0  0  0  0  0  0  0  0  0  0  0
   17.9932   14.3213   -1.7124 H   0  0  0  0  0  0  0  0  0  0  0  0
   18.7248   12.7104   -1.8897 H   0  0  0  0  0  0  0  0  0  0  0  0
   20.5646   13.3332   -0.3502 H   0  0  0  0  0  0  0  0  0  0  0  0
   19.7999   14.8785    0.0223 H   0  0  0  0  0  0  0  0  0  0  0  0
   19.8451   15.5259   -2.3583 H   0  0  0  0  0  0  0  0  0  0  0  0
   20.5686   13.9690   -2.7833 H   0  0  0  0  0  0  0  0  0  0  0  0
   22.5331   14.5053   -1.3274 H   0  0  0  0  0  0  0  0  0  0  0  0
   21.8086   16.0725   -0.9414 H   0  0  0  0  0  0  0  0  0  0  0  0
   21.7198   16.6359   -3.3810 H   0  0  0  0  0  0  0  0  0  0  0  0
   22.4232   15.0660   -3.7747 H   0  0  0  0  0  0  0  0  0  0  0  0
   23.7558   17.2224   -2.0668 H   0  0  0  0  0  0  0  0  0  0  0  0
   24.1584   16.8217   -3.7525 H   0  0  0  0  0  0  0  0  0  0  0  0
   24.4599   15.6396   -2.4586 H   0  0  0  0  0  0  0  0  0  0  0  0
   18.2687   10.2101    4.3897 H   0  0  0  0  0  0  0  0  0  0  0  0
   17.8134   11.6307    5.1511 H   0  0  0  0  0  0  0  0  0  0  0  0
   16.2205   12.5849    2.6769 H   0  0  0  0  0  0  0  0  0  0  0  0
   17.6236   13.4805    2.1874 H   0  0  0  0  0  0  0  0  0  0  0  0
   16.7610   13.2570    5.0562 H   0  0  0  0  0  0  0  0  0  0  0  0
   16.5508   14.6523    4.0137 H   0  0  0  0  0  0  0  0  0  0  0  0
   18.9204   14.7237    3.4539 H   0  0  0  0  0  0  0  0  0  0  0  0
   19.2455   13.1782    4.2098 H   0  0  0  0  0  0  0  0  0  0  0  0
   18.6322   14.0340    6.4171 H   0  0  0  0  0  0  0  0  0  0  0  0
   18.3604   15.6383    5.6993 H   0  0  0  0  0  0  0  0  0  0  0  0
   20.6921   15.5107    4.6881 H   0  0  0  0  0  0  0  0  0  0  0  0
   20.9378   13.9583    5.4903 H   0  0  0  0  0  0  0  0  0  0  0  0
   20.4858   14.9971    7.6889 H   0  0  0  0  0  0  0  0  0  0  0  0
   20.1778   16.5516    6.9017 H   0  0  0  0  0  0  0  0  0  0  0  0
   22.5040   16.5392    5.9727 H   0  0  0  0  0  0  0  0  0  0  0  0
   22.8160   15.0006    6.7865 H   0  0  0  0  0  0  0  0  0  0  0  0
   21.9535   17.5956    8.1689 H   0  0  0  0  0  0  0  0  0  0  0  0
   23.6000   16.9212    8.1762 H   0  0  0  0  0  0  0  0  0  0  0  0
   22.2717   16.0565    8.9873 H   0  0  0  0  0  0  0  0  0  0  0  0
   12.8097   12.4345    4.3897 H   0  0  0  0  0  0  0  0  0  0  0  0
   12.1646   13.3419    3.0503 H   0  0  0  0  0  0  0  0  0  0  0  0
   14.3696   12.1971    1.0881 H   0  0  0  0  0  0  0  0  0  0  0  0
   15.3690   13.6082    1.5576 H   0  0  0  0  0  0  0  0  0  0  0  0
   12.4653   13.8462    1.1256 H   0  0  0  0  0  0  0  0  0  0  0  0
   13.7657   14.3781    0.0421 H   0  0  0  0  0  0  0  0  0  0  0  0
   14.8337   15.7030    1.8269 H   0  0  0  0  0  0  0  0  0  0  0  0
   13.7505   15.0871    3.0513 H   0  0  0  0  0  0  0  0  0  0  0  0
   11.7969   15.9855    1.8524 H   0  0  0  0  0  0  0  0  0  0  0  0
   12.9124   16.7494    0.6971 H   0  0  0  0  0  0  0  0  0  0  0  0
   14.1076   17.8250    2.6707 H   0  0  0  0  0  0  0  0  0  0  0  0
   12.9227   17.0969    3.7600 H   0  0  0  0  0  0  0  0  0  0  0  0
   11.0740   18.1670    2.5056 H   0  0  0  0  0  0  0  0  0  0  0  0
   12.2352   18.8676    1.3719 H   0  0  0  0  0  0  0  0  0  0  0  0
   13.3238   20.1036    3.2542 H   0  0  0  0  0  0  0  0  0  0  0  0
   12.1392   19.4226    4.3790 H   0  0  0  0  0  0  0  0  0  0  0  0
   11.4710   21.0918    1.8961 H   0  0  0  0  0  0  0  0  0  0  0  0
   11.4166   21.6762    3.5756 H   0  0  0  0  0  0  0  0  0  0  0  0
   10.2848   20.4171    3.0252 H   0  0  0  0  0  0  0  0  0  0  0  0
   12.6608   10.6607   -0.4161 H   0  0  0  0  0  0  0  0  0  0  0  0
   11.2402    9.9886   -1.0666 H   0  0  0  0  0  0  0  0  0  0  0  0
   13.4894   11.9077   -1.4200 H   0  0  0  0  0  0  0  0  0  0  0  0
   12.0636   12.0814   -2.4383 H   0  0  0  0  0  0  0  0  0  0  0  0
   14.0284   11.0359   -4.1721 H   0  0  0  0  0  0  0  0  0  0  0  0
   15.0114   11.9100   -2.9934 H   0  0  0  0  0  0  0  0  0  0  0  0
   13.6501   13.9225   -3.2026 H   0  0  0  0  0  0  0  0  0  0  0  0
   12.4902   13.0747   -4.2354 H   0  0  0  0  0  0  0  0  0  0  0  0
   14.2689   12.5960   -5.8924 H   0  0  0  0  0  0  0  0  0  0  0  0
   15.4214   13.5229   -4.9133 H   0  0  0  0  0  0  0  0  0  0  0  0
   13.8459   15.4826   -4.9691 H   0  0  0  0  0  0  0  0  0  0  0  0
   12.7119   14.5409   -5.9431 H   0  0  0  0  0  0  0  0  0  0  0  0
   14.4437   14.2292   -7.6921 H   0  0  0  0  0  0  0  0  0  0  0  0
   15.5965   15.1566   -6.7218 H   0  0  0  0  0  0  0  0  0  0  0  0
   14.0307   17.1160   -6.7461 H   0  0  0  0  0  0  0  0  0  0  0  0
   12.8888   16.1897   -7.7255 H   0  0  0  0  0  0  0  0  0  0  0  0
   15.7727   16.8439   -8.5128 H   0  0  0  0  0  0  0  0  0  0  0  0
   14.3145   17.6364   -9.1549 H   0  0  0  0  0  0  0  0  0  0  0  0
   14.6243   15.9177   -9.4981 H   0  0  0  0  0  0  0  0  0  0  0  0
   17.5197    4.3170    1.7337 H   0  0  0  0  0  0  0  0  0  0  0  0
   17.0780    5.6727    0.9042 H   0  0  0  0  0  0  0  0  0  0  0  0
   18.9904    4.6551   -0.0543 H   0  0  0  0  0  0  0  0  0  0  0  0
   18.0210    5.9800   -0.7118 H   0  0  0  0  0  0  0  0  0  0  0  0
   18.4272    3.3744   -2.1359 H   0  0  0  0  0  0  0  0  0  0  0  0
   19.3753    4.8432   -2.4690 H   0  0  0  0  0  0  0  0  0  0  0  0
   17.4105    6.0891   -3.0813 H   0  0  0  0  0  0  0  0  0  0  0  0
   16.3279    4.7936   -2.5393 H   0  0  0  0  0  0  0  0  0  0  0  0
   17.4876    3.2473   -4.1714 H   0  0  0  0  0  0  0  0  0  0  0  0
   18.3134    4.6701   -4.8257 H   0  0  0  0  0  0  0  0  0  0  0  0
   16.0483    5.6643   -5.3110 H   0  0  0  0  0  0  0  0  0  0  0  0
   15.2692    4.2426   -4.6519 H   0  0  0  0  0  0  0  0  0  0  0  0
   16.5481    2.8629   -6.3482 H   0  0  0  0  0  0  0  0  0  0  0  0
   17.2770    4.3447   -6.9568 H   0  0  0  0  0  0  0  0  0  0  0  0
   14.8639    5.1602   -7.5051 H   0  0  0  0  0  0  0  0  0  0  0  0
   14.3118    3.5845   -7.0225 H   0  0  0  0  0  0  0  0  0  0  0  0
   16.4895    4.0362   -9.1392 H   0  0  0  0  0  0  0  0  0  0  0  0
   14.7631    3.9434   -9.5197 H   0  0  0  0  0  0  0  0  0  0  0  0
   15.6027    2.5393   -8.8114 H   0  0  0  0  0  0  0  0  0  0  0  0
   12.7931    7.0617    6.0016 H   0  0  0  0  0  0  0  0  0  0  0  0
   14.0670    6.3843    6.8625 H   0  0  0  0  0  0  0  0  0  0  0  0
   11.3436    4.9767    6.9742 H   0  0  0  0  0  0  0  0  0  0  0  0
   11.9207    6.0909    7.9896 H   0  0  0  0  0  0  0  0  0  0  0  0
   13.8923    4.7685    8.4433 H   0  0  0  0  0  0  0  0  0  0  0  0
   13.2346    3.4628    7.4685 H   0  0  0  0  0  0  0  0  0  0  0  0
   11.1451    3.3832    8.7731 H   0  0  0  0  0  0  0  0  0  0  0  0
   11.5711    4.8311    9.6700 H   0  0  0  0  0  0  0  0  0  0  0  0
   13.2245    2.2940    9.6827 H   0  0  0  0  0  0  0  0  0  0  0  0
   12.0137    2.6764   10.9168 H   0  0  0  0  0  0  0  0  0  0  0  0
   13.1726    4.7032   11.5815 H   0  0  0  0  0  0  0  0  0  0  0  0
   14.2679    4.6457   10.2356 H   0  0  0  0  0  0  0  0  0  0  0  0
   15.2087    2.4712   11.0456 H   0  0  0  0  0  0  0  0  0  0  0  0
   14.2406    2.6673   12.5170 H   0  0  0  0  0  0  0  0  0  0  0  0
   16.3098    4.6575   11.4160 H   0  0  0  0  0  0  0  0  0  0  0  0
   16.5270    3.6122   12.8321 H   0  0  0  0  0  0  0  0  0  0  0  0
   15.3297    4.9280   12.8652 H   0  0  0  0  0  0  0  0  0  0  0  0
    9.8224    7.8110    3.5855 H   0  0  0  0  0  0  0  0  0  0  0  0
    9.4051    6.3479    2.5819 H   0  0  0  0  0  0  0  0  0  0  0  0
    9.3680    8.6087    0.6907 H   0  0  0  0  0  0  0  0  0  0  0  0
    9.1673    9.2860    2.2318 H   0  0  0  0  0  0  0  0  0  0  0  0
    7.5347    7.0376    1.5483 H   0  0  0  0  0  0  0  0  0  0  0  0
    7.4632    8.2253    0.3039 H   0  0  0  0  0  0  0  0  0  0  0  0
    7.1013   10.1427    1.6010 H   0  0  0  0  0  0  0  0  0  0  0  0
    7.3840    9.3098    3.1322 H   0  0  0  0  0  0  0  0  0  0  0  0
    5.1336    8.6554    1.2392 H   0  0  0  0  0  0  0  0  0  0  0  0
    5.0061    9.6400    2.7014 H   0  0  0  0  0  0  0  0  0  0  0  0
    5.9698    7.7356    4.0363 H   0  0  0  0  0  0  0  0  0  0  0  0
    6.0643    6.7299    2.6125 H   0  0  0  0  0  0  0  0  0  0  0  0
    3.6167    7.1408    2.1845 H   0  0  0  0  0  0  0  0  0  0  0  0
    3.5551    7.8197    3.8279 H   0  0  0  0  0  0  0  0  0  0  0  0
    4.5249    5.0299    2.9897 H   0  0  0  0  0  0  0  0  0  0  0  0
    3.0090    5.4078    3.8374 H   0  0  0  0  0  0  0  0  0  0  0  0
    4.5821    5.6460    4.6509 H   0  0  0  0  0  0  0  0  0  0  0  0
  1  2  1  0  0  0  0
  1211  1  0  0  0  0
  1212  1  0  0  0  0
  1213  1  0  0  0  0
  2  3  1  0  0  0  0
  2214  1  0  0  0  0
  2215  1  0  0  0  0
  3  4  1  0  0  0  0
  3216  1  0  0  0  0
  3217  1  0  0  0  0
  4  5  1  0  0  0  0
  4218  1  0  0  0  0
  4219  1  0  0  0  0
  5  6  1  0  0  0  0
  5220  1  0  0  0  0
  5221  1  0  0  0  0
  6  7  1  0  0  0  0
  6222  1  0  0  0  0
  6223  1  0  0  0  0
  7  8  1  0  0  0  0
  7224  1  0  0  0  0
  7225  1  0  0  0  0
  8  9  1  0  0  0  0
  8226  1  0  0  0  0
  8227  1  0  0  0  0
  9 10  1  0  0  0  0
 10 11  1  0  0  0  0
 10228  1  0  0  0  0
 10229  1  0  0  0  0
 11 12  1  0  0  0  0
 11 16  1  0  0  0  0
 11230  1  0  0  0  0
 12 13  1  0  0  0  0
 12122  1  0  0  0  0
 12231  1  0  0  0  0
 13 14  1  0  0  0  0
 13202  1  0  0  0  0
 13232  1  0  0  0  0
 14 15  1  0  0  0  0
 14193  1  0  0  0  0
 14233  1  0  0  0  0
 15 16  1  0  0  0  0
 15 17  1  0  0  0  0
 15234  1  0  0  0  0
 17 18  1  0  0  0  0
 18 19  1  0  0  0  0
 18 23  1  0  0  0  0
 18235  1  0  0  0  0
 19 20  1  0  0  0  0
 19183  1  0  0  0  0
 19236  1  0  0  0  0
 20 21  1  0  0  0  0
 21 22  1  0  0  0  0
 21 42  1  0  0  0  0
 21237  1  0  0  0  0
 22 23  1  0  0  0  0
 22 33  1  0  0  0  0
 22238  1  0  0  0  0
 23 24  1  0  0  0  0
 23239  1  0  0  0  0
 24 25  1  0  0  0  0
 25 26  1  0  0  0  0
 25240  1  0  0  0  0
 25241  1  0  0  0  0
 26 27  1  0  0  0  0
 26242  1  0  0  0  0
 26243  1  0  0  0  0
 27 28  1  0  0  0  0
 27244  1  0  0  0  0
 27245  1  0  0  0  0
 28 29  1  0  0  0  0
 28246  1  0  0  0  0
 28247  1  0  0  0  0
 29 30  1  0  0  0  0
 29248  1  0  0  0  0
 29249  1  0  0  0  0
 30 31  1  0  0  0  0
 30250  1  0  0  0  0
 30251  1  0  0  0  0
 31 32  1  0  0  0  0
 31252  1  0  0  0  0
 31253  1  0  0  0  0
 32254  1  0  0  0  0
 32255  1  0  0  0  0
 32256  1  0  0  0  0
 33 34  1  0  0  0  0
 34 35  1  0  0  0  0
 34257  1  0  0  0  0
 34258  1  0  0  0  0
 35 36  1  0  0  0  0
 35259  1  0  0  0  0
 35260  1  0  0  0  0
 36 37  1  0  0  0  0
 36261  1  0  0  0  0
 36262  1  0  0  0  0
 37 38  1  0  0  0  0
 37263  1  0  0  0  0
 37264  1  0  0  0  0
 38 39  1  0  0  0  0
 38265  1  0  0  0  0
 38266  1  0  0  0  0
 39 40  1  0  0  0  0
 39267  1  0  0  0  0
 39268  1  0  0  0  0
 40 41  1  0  0  0  0
 40269  1  0  0  0  0
 40270  1  0  0  0  0
 41271  1  0  0  0  0
 41272  1  0  0  0  0
 41273  1  0  0  0  0
 42 43  1  0  0  0  0
 43 44  1  0  0  0  0
 43 48  1  0  0  0  0
 43274  1  0  0  0  0
 44 45  1  0  0  0  0
 44173  1  0  0  0  0
 44275  1  0  0  0  0
 45 46  1  0  0  0  0
 46 47  1  0  0  0  0
 46 67  1  0  0  0  0
 46276  1  0  0  0  0
 47 48  1  0  0  0  0
 47 58  1  0  0  0  0
 47277  1  0  0  0  0
 48 49  1  0  0  0  0
 48278  1  0  0  0  0
 49 50  1  0  0  0  0
 50 51  1  0  0  0  0
 50279  1  0  0  0  0
 50280  1  0  0  0  0
 51 52  1  0  0  0  0
 51281  1  0  0  0  0
 51282  1  0  0  0  0
 52 53  1  0  0  0  0
 52283  1  0  0  0  0
 52284  1  0  0  0  0
 53 54  1  0  0  0  0
 53285  1  0  0  0  0
 53286  1  0  0  0  0
 54 55  1  0  0  0  0
 54287  1  0  0  0  0
 54288  1  0  0  0  0
 55 56  1  0  0  0  0
 55289  1  0  0  0  0
 55290  1  0  0  0  0
 56 57  1  0  0  0  0
 56291  1  0  0  0  0
 56292  1  0  0  0  0
 57293  1  0  0  0  0
 57294  1  0  0  0  0
 57295  1  0  0  0  0
 58 59  1  0  0  0  0
 59 60  1  0  0  0  0
 59296  1  0  0  0  0
 59297  1  0  0  0  0
 60 61  1  0  0  0  0
 60298  1  0  0  0  0
 60299  1  0  0  0  0
 61 62  1  0  0  0  0
 61300  1  0  0  0  0
 61301  1  0  0  0  0
 62 63  1  0  0  0  0
 62302  1  0  0  0  0
 62303  1  0  0  0  0
 63 64  1  0  0  0  0
 63304  1  0  0  0  0
 63305  1  0  0  0  0
 64 65  1  0  0  0  0
 64306  1  0  0  0  0
 64307  1  0  0  0  0
 65 66  1  0  0  0  0
 65308  1  0  0  0  0
 65309  1  0  0  0  0
 66310  1  0  0  0  0
 66311  1  0  0  0  0
 66312  1  0  0  0  0
 67 68  1  0  0  0  0
 68 69  1  0  0  0  0
 68 73  1  0  0  0  0
 68313  1  0  0  0  0
 69 70  1  0  0  0  0
 69163  1  0  0  0  0
 69314  1  0  0  0  0
 70 71  1  0  0  0  0
 71 72  1  0  0  0  0
 71 92  1  0  0  0  0
 71315  1  0  0  0  0
 72 73  1  0  0  0  0
 72 83  1  0  0  0  0
 72316  1  0  0  0  0
 73 74  1  0  0  0  0
 73317  1  0  0  0  0
 74 75  1  0  0  0  0
 75 76  1  0  0  0  0
 75318  1  0  0  0  0
 75319  1  0  0  0  0
 76 77  1  0  0  0  0
 76320  1  0  0  0  0
 76321  1  0  0  0  0
 77 78  1  0  0  0  0
 77322  1  0  0  0  0
 77323  1  0  0  0  0
 78 79  1  0  0  0  0
 78324  1  0  0  0  0
 78325  1  0  0  0  0
 79 80  1  0  0  0  0
 79326  1  0  0  0  0
 79327  1  0  0  0  0
 80 81  1  0  0  0  0
 80328  1  0  0  0  0
 80329  1  0  0  0  0
 81 82  1  0  0  0  0
 81330  1  0  0  0  0
 81331  1  0  0  0  0
 82332  1  0  0  0  0
 82333  1  0  0  0  0
 82334  1  0  0  0  0
 83 84  1  0  0  0  0
 84 85  1  0  0  0  0
 84335  1  0  0  0  0
 84336  1  0  0  0  0
 85 86  1  0  0  0  0
 85337  1  0  0  0  0
 85338  1  0  0  0  0
 86 87  1  0  0  0  0
 86339  1  0  0  0  0
 86340  1  0  0  0  0
 87 88  1  0  0  0  0
 87341  1  0  0  0  0
 87342  1  0  0  0  0
 88 89  1  0  0  0  0
 88343  1  0  0  0  0
 88344  1  0  0  0  0
 89 90  1  0  0  0  0
 89345  1  0  0  0  0
 89346  1  0  0  0  0
 90 91  1  0  0  0  0
 90347  1  0  0  0  0
 90348  1  0  0  0  0
 91349  1  0  0  0  0
 91350  1  0  0  0  0
 91351  1  0  0  0  0
 92 93  1  0  0  0  0
 93 94  1  0  0  0  0
 93 98  1  0  0  0  0
 93352  1  0  0  0  0
 94 95  1  0  0  0  0
 94153  1  0  0  0  0
 94353  1  0  0  0  0
 95 96  1  0  0  0  0
 96 97  1  0  0  0  0
 96117  1  0  0  0  0
 96354  1  0  0  0  0
 97 98  1  0  0  0  0
 97108  1  0  0  0  0
 97355  1  0  0  0  0
 98 99  1  0  0  0  0
 98356  1  0  0  0  0
 99100  1  0  0  0  0
100101  1  0  0  0  0
100357  1  0  0  0  0
100358  1  0  0  0  0
101102  1  0  0  0  0
101359  1  0  0  0  0
101360  1  0  0  0  0
102103  1  0  0  0  0
102361  1  0  0  0  0
102362  1  0  0  0  0
103104  1  0  0  0  0
103363  1  0  0  0  0
103364  1  0  0  0  0
104105  1  0  0  0  0
104365  1  0  0  0  0
104366  1  0  0  0  0
105106  1  0  0  0  0
105367  1  0  0  0  0
105368  1  0  0  0  0
106107  1  0  0  0  0
106369  1  0  0  0  0
106370  1  0  0  0  0
107371  1  0  0  0  0
107372  1  0  0  0  0
107373  1  0  0  0  0
108109  1  0  0  0  0
109110  1  0  0  0  0
109374  1  0  0  0  0
109375  1  0  0  0  0
110111  1  0  0  0  0
110376  1  0  0  0  0
110377  1  0  0  0  0
111112  1  0  0  0  0
111378  1  0  0  0  0
111379  1  0  0  0  0
112113  1  0  0  0  0
112380  1  0  0  0  0
112381  1  0  0  0  0
113114  1  0  0  0  0
113382  1  0  0  0  0
113383  1  0  0  0  0
114115  1  0  0  0  0
114384  1  0  0  0  0
114385  1  0  0  0  0
115116  1  0  0  0  0
115386  1  0  0  0  0
115387  1  0  0  0  0
116388  1  0  0  0  0
116389  1  0  0  0  0
116390  1  0  0  0  0
117118  1  0  0  0  0
118119  1  0  0  0  0
118124  1  0  0  0  0
118391  1  0  0  0  0
119120  1  0  0  0  0
119143  1  0  0  0  0
119392  1  0  0  0  0
120121  1  0  0  0  0
121122  1  0  0  0  0
121123  1  0  0  0  0
121393  1  0  0  0  0
123124  1  0  0  0  0
123134  1  0  0  0  0
123394  1  0  0  0  0
124125  1  0  0  0  0
124395  1  0  0  0  0
125126  1  0  0  0  0
126127  1  0  0  0  0
126396  1  0  0  0  0
126397  1  0  0  0  0
127128  1  0  0  0  0
127398  1  0  0  0  0
127399  1  0  0  0  0
128129  1  0  0  0  0
128400  1  0  0  0  0
128401  1  0  0  0  0
129130  1  0  0  0  0
129402  1  0  0  0  0
129403  1  0  0  0  0
130131  1  0  0  0  0
130404  1  0  0  0  0
130405  1  0  0  0  0
131132  1  0  0  0  0
131406  1  0  0  0  0
131407  1  0  0  0  0
132133  1  0  0  0  0
132408  1  0  0  0  0
132409  1  0  0  0  0
133410  1  0  0  0  0
133411  1  0  0  0  0
133412  1  0  0  0  0
134135  1  0  0  0  0
135136  1  0  0  0  0
135413  1  0  0  0  0
135414  1  0  0  0  0
136137  1  0  0  0  0
136415  1  0  0  0  0
136416  1  0  0  0  0
137138  1  0  0  0  0
137417  1  0  0  0  0
137418  1  0  0  0  0
138139  1  0  0  0  0
138419  1  0  0  0  0
138420  1  0  0  0  0
139140  1  0  0  0  0
139421  1  0  0  0  0
139422  1  0  0  0  0
140141  1  0  0  0  0
140423  1  0  0  0  0
140424  1  0  0  0  0
141142  1  0  0  0  0
141425  1  0  0  0  0
141426  1  0  0  0  0
142427  1  0  0  0  0
142428  1  0  0  0  0
142429  1  0  0  0  0
143144  1  0  0  0  0
143430  1  0  0  0  0
143431  1  0  0  0  0
144145  1  0  0  0  0
145146  1  0  0  0  0
145432  1  0  0  0  0
145433  1  0  0  0  0
146147  1  0  0  0  0
146434  1  0  0  0  0
146435  1  0  0  0  0
147148  1  0  0  0  0
147436  1  0  0  0  0
147437  1  0  0  0  0
148149  1  0  0  0  0
148438  1  0  0  0  0
148439  1  0  0  0  0
149150  1  0  0  0  0
149440  1  0  0  0  0
149441  1  0  0  0  0
150151  1  0  0  0  0
150442  1  0  0  0  0
150443  1  0  0  0  0
151152  1  0  0  0  0
151444  1  0  0  0  0
151445  1  0  0  0  0
152446  1  0  0  0  0
152447  1  0  0  0  0
152448  1  0  0  0  0
153154  1  0  0  0  0
153449  1  0  0  0  0
153450  1  0  0  0  0
154155  1  0  0  0  0
155156  1  0  0  0  0
155451  1  0  0  0  0
155452  1  0  0  0  0
156157  1  0  0  0  0
156453  1  0  0  0  0
156454  1  0  0  0  0
157158  1  0  0  0  0
157455  1  0  0  0  0
157456  1  0  0  0  0
158159  1  0  0  0  0
158457  1  0  0  0  0
158458  1  0  0  0  0
159160  1  0  0  0  0
159459  1  0  0  0  0
159460  1  0  0  0  0
160161  1  0  0  0  0
160461  1  0  0  0  0
160462  1  0  0  0  0
161162  1  0  0  0  0
161463  1  0  0  0  0
161464  1  0  0  0  0
162465  1  0  0  0  0
162466  1  0  0  0  0
162467  1  0  0  0  0
163164  1  0  0  0  0
163468  1  0  0  0  0
163469  1  0  0  0  0
164165  1  0  0  0  0
165166  1  0  0  0  0
165470  1  0  0  0  0
165471  1  0  0  0  0
166167  1  0  0  0  0
166472  1  0  0  0  0
166473  1  0  0  0  0
167168  1  0  0  0  0
167474  1  0  0  0  0
167475  1  0  0  0  0
168169  1  0  0  0  0
168476  1  0  0  0  0
168477  1  0  0  0  0
169170  1  0  0  0  0
169478  1  0  0  0  0
169479  1  0  0  0  0
170171  1  0  0  0  0
170480  1  0  0  0  0
170481  1  0  0  0  0
171172  1  0  0  0  0
171482  1  0  0  0  0
171483  1  0  0  0  0
172484  1  0  0  0  0
172485  1  0  0  0  0
172486  1  0  0  0  0
173174  1  0  0  0  0
173487  1  0  0  0  0
173488  1  0  0  0  0
174175  1  0  0  0  0
175176  1  0  0  0  0
175489  1  0  0  0  0
175490  1  0  0  0  0
176177  1  0  0  0  0
176491  1  0  0  0  0
176492  1  0  0  0  0
177178  1  0  0  0  0
177493  1  0  0  0  0
177494  1  0  0  0  0
178179  1  0  0  0  0
178495  1  0  0  0  0
178496  1  0  0  0  0
179180  1  0  0  0  0
179497  1  0  0  0  0
179498  1  0  0  0  0
180181  1  0  0  0  0
180499  1  0  0  0  0
180500  1  0  0  0  0
181182  1  0  0  0  0
181501  1  0  0  0  0
181502  1  0  0  0  0
182503  1  0  0  0  0
182504  1  0  0  0  0
182505  1  0  0  0  0
183184  1  0  0  0  0
183506  1  0  0  0  0
183507  1  0  0  0  0
184185  1  0  0  0  0
185186  1  0  0  0  0
185508  1  0  0  0  0
185509  1  0  0  0  0
186187  1  0  0  0  0
186510  1  0  0  0  0
186511  1  0  0  0  0
187188  1  0  0  0  0
187512  1  0  0  0  0
187513  1  0  0  0  0
188189  1  0  0  0  0
188514  1  0  0  0  0
188515  1  0  0  0  0
189190  1  0  0  0  0
189516  1  0  0  0  0
189517  1  0  0  0  0
190191  1  0  0  0  0
190518  1  0  0  0  0
190519  1  0  0  0  0
191192  1  0  0  0  0
191520  1  0  0  0  0
191521  1  0  0  0  0
192522  1  0  0  0  0
192523  1  0  0  0  0
192524  1  0  0  0  0
193194  1  0  0  0  0
194195  1  0  0  0  0
194525  1  0  0  0  0
194526  1  0  0  0  0
195196  1  0  0  0  0
195527  1  0  0  0  0
195528  1  0  0  0  0
196197  1  0  0  0  0
196529  1  0  0  0  0
196530  1  0  0  0  0
197198  1  0  0  0  0
197531  1  0  0  0  0
197532  1  0  0  0  0
198199  1  0  0  0  0
198533  1  0  0  0  0
198534  1  0  0  0  0
199200  1  0  0  0  0
199535  1  0  0  0  0
199536  1  0  0  0  0
200201  1  0  0  0  0
200537  1  0  0  0  0
200538  1  0  0  0  0
201539  1  0  0  0  0
201540  1  0  0  0  0
201541  1  0  0  0  0
202203  1  0  0  0  0
203204  1  0  0  0  0
203542  1  0  0  0  0
203543  1  0  0  0  0
204205  1  0  0  0  0
204544  1  0  0  0  0
204545  1  0  0  0  0
205206  1  0  0  0  0
205546  1  0  0  0  0
205547  1  0  0  0  0
206207  1  0  0  0  0
206548  1  0  0  0  0
206549  1  0  0  0  0
207208  1  0  0  0  0
207550  1  0  0  0  0
207551  1  0  0  0  0
208209  1  0  0  0  0
208552  1  0  0  0  0
208553  1  0  0  0  0
209210  1  0  0  0  0
209554  1  0  0  0  0
209555  1  0  0  0  0
210556  1  0  0  0  0
210557  1  0  0  0  0
210558  1  0  0  0  0
M  END
