
 OpenBabel10072620173D

 96 96  0  0  1  0  0  0  0  0999 V2000
    0.7182    0.7802    0.8421 C   0  0  0  0  0  0  0  0  0  0  0  0
    2.2385    0.7854    0.8659 C   0  0  0  0  0  0  0  0  0  0  0  0
    2.7823   -0.4580    1.5669 C   0  0  0  0  0  0  0  0  0  0  0  0
    4.3109   -0.4697    1.6007 C   0  0  0  0  0  0  0  0  0  0  0  0
    4.8308   -1.7224    2.3075 C   0  0  0  0  0  0  0  0  0  0  0  0
    6.3583   -1.7525    2.3529 C   0  0  0  0  0  0  0  0  0  0  0  0
    6.8620   -3.0108    3.0623 C   0  0  0  0  0  0  0  0  0  0  0  0
    8.3890   -3.0511    3.1104 C   0  0  0  0  0  0  0  0  0  0  0  0
    8.8937   -4.3127    3.8147 C   0  0  0  0  0  0  0  0  0  0  0  0
   10.4218   -4.3449    3.8532 C   0  0  0  0  0  0  0  0  0  0  0  0
   10.9513   -5.6013    4.5486 C   0  0  0  0  0  0  0  0  0  0  0  0
   12.4810   -5.5972    4.5807 C   0  0  0  0  0  0  0  0  0  0  0  0
   13.0484   -6.8337    5.2827 C   0  0  0  0  0  0  0  0  0  0  0  0
   14.5780   -6.7802    5.3205 C   0  0  0  0  0  0  0  0  0  0  0  0
   15.1869   -8.0100    5.9940 C   0  0  0  0  0  0  0  0  0  0  0  0
   16.7104   -7.9178    6.0284 C   0  0  0  0  0  0  0  0  0  0  0  0
   17.2397   -9.1142    6.6063 O   0  0  0  0  0  0  0  0  0  0  0  0
   18.6691   -9.1178    6.5721 C   0  0  0  0  0  0  0  0  0  0  0  0
   19.2145  -10.4091    7.1987 C   0  0  3  0  0  0  0  0  0  0  0  0
   18.6797  -11.6406    6.4440 C   0  0  0  0  0  0  0  0  0  0  0  0
   19.1943  -12.8199    7.0718 O   0  0  0  0  0  0  0  0  0  0  0  0
   18.3937  -14.1997    6.8276 P   0  0  3  0  0  0  0  0  0  0  0  0
   18.7059  -14.3652    5.2340 O   0  5  0  0  0  0  0  0  0  0  0  0
   19.5807  -15.1846    7.3294 O   0  0  0  0  0  0  0  0  0  0  0  0
   19.4454  -16.5808    7.0982 C   0  0  0  0  0  0  0  0  0  0  0  0
   19.9256  -17.0345    5.7113 C   0  0  0  0  0  0  0  0  0  0  0  0
   21.1943  -16.3670    5.3005 N   0  3  0  0  0  0  0  0  0  0  0  0
   22.2924  -16.3730    5.9753 C   0  0  0  0  0  0  0  0  0  0  0  0
   23.5176  -15.6294    5.5545 C   0  0  0  0  0  0  0  0  0  0  0  0
   24.3121  -15.3392    6.4380 O   0  0  0  0  0  0  0  0  0  0  0  0
   23.6973  -15.3753    4.0566 C   0  0  3  0  0  0  0  0  0  0  0  0
   22.3170  -15.2176    3.4708 C   0  0  0  0  0  0  0  0  0  0  0  0
   21.2091  -15.7057    4.0450 C   0  0  0  0  0  0  0  0  0  0  0  0
   24.4176  -16.5106    3.4272 N   0  0  0  0  0  0  0  0  0  0  0  0
   24.6163  -16.2922    1.9817 C   0  0  0  0  0  0  0  0  0  0  0  0
   25.7546  -16.6928    4.0290 C   0  0  0  0  0  0  0  0  0  0  0  0
   20.6533  -10.4369    7.1442 O   0  0  0  0  0  0  0  0  0  0  0  0
   21.2714   -9.7161    8.2111 C   0  0  0  0  0  0  0  0  0  0  0  0
   22.7680   -9.9613    8.1578 C   0  0  0  0  0  0  0  0  0  0  0  0
    0.3405    1.6748    0.3381 H   0  0  0  0  0  0  0  0  0  0  0  0
    0.3106    0.7651    1.8577 H   0  0  0  0  0  0  0  0  0  0  0  0
    0.3378   -0.0963    0.3082 H   0  0  0  0  0  0  0  0  0  0  0  0
    2.5879    1.6881    1.3797 H   0  0  0  0  0  0  0  0  0  0  0  0
    2.6150    0.8307   -0.1623 H   0  0  0  0  0  0  0  0  0  0  0  0
    2.4214   -1.3555    1.0504 H   0  0  0  0  0  0  0  0  0  0  0  0
    2.3939   -0.4985    2.5917 H   0  0  0  0  0  0  0  0  0  0  0  0
    4.6761    0.4246    2.1194 H   0  0  0  0  0  0  0  0  0  0  0  0
    4.7036   -0.4341    0.5776 H   0  0  0  0  0  0  0  0  0  0  0  0
    4.4632   -2.6156    1.7881 H   0  0  0  0  0  0  0  0  0  0  0  0
    4.4342   -1.7582    3.3294 H   0  0  0  0  0  0  0  0  0  0  0  0
    6.7298   -0.8622    2.8744 H   0  0  0  0  0  0  0  0  0  0  0  0
    6.7582   -1.7200    1.3323 H   0  0  0  0  0  0  0  0  0  0  0  0
    6.4878   -3.9005    2.5417 H   0  0  0  0  0  0  0  0  0  0  0  0
    6.4625   -3.0420    4.0831 H   0  0  0  0  0  0  0  0  0  0  0  0
    8.7634   -2.1634    3.6346 H   0  0  0  0  0  0  0  0  0  0  0  0
    8.7895   -3.0159    2.0901 H   0  0  0  0  0  0  0  0  0  0  0  0
    8.5206   -5.2014    3.2922 H   0  0  0  0  0  0  0  0  0  0  0  0
    8.4979   -4.3475    4.8369 H   0  0  0  0  0  0  0  0  0  0  0  0
   10.7915   -3.4545    4.3761 H   0  0  0  0  0  0  0  0  0  0  0  0
   10.8146   -4.3030    2.8300 H   0  0  0  0  0  0  0  0  0  0  0  0
   10.5944   -6.4949    4.0225 H   0  0  0  0  0  0  0  0  0  0  0  0
   10.5609   -5.6489    5.5719 H   0  0  0  0  0  0  0  0  0  0  0  0
   12.8311   -4.6945    5.0957 H   0  0  0  0  0  0  0  0  0  0  0  0
   12.8658   -5.5503    3.5544 H   0  0  0  0  0  0  0  0  0  0  0  0
   12.7196   -7.7375    4.7562 H   0  0  0  0  0  0  0  0  0  0  0  0
   12.6566   -6.8916    6.3051 H   0  0  0  0  0  0  0  0  0  0  0  0
   14.8969   -5.8766    5.8548 H   0  0  0  0  0  0  0  0  0  0  0  0
   14.9624   -6.6994    4.2963 H   0  0  0  0  0  0  0  0  0  0  0  0
   14.8886   -8.9219    5.4621 H   0  0  0  0  0  0  0  0  0  0  0  0
   14.8024   -8.1160    7.0159 H   0  0  0  0  0  0  0  0  0  0  0  0
   17.0224   -7.0570    6.6312 H   0  0  0  0  0  0  0  0  0  0  0  0
   17.1013   -7.8015    5.0106 H   0  0  0  0  0  0  0  0  0  0  0  0
   19.0469   -8.2453    7.1161 H   0  0  0  0  0  0  0  0  0  0  0  0
   19.0161   -9.0309    5.5349 H   0  0  0  0  0  0  0  0  0  0  0  0
   18.8832  -10.4976    8.2413 H   0  0  0  0  0  0  0  0  0  0  0  0
   19.0275  -11.6254    5.4034 H   0  0  0  0  0  0  0  0  0  0  0  0
   17.5825  -11.6364    6.4606 H   0  0  0  0  0  0  0  0  0  0  0  0
   18.4186  -16.9260    7.2821 H   0  0  0  0  0  0  0  0  0  0  0  0
   20.0632  -17.0705    7.8598 H   0  0  0  0  0  0  0  0  0  0  0  0
   19.1562  -16.8426    4.9563 H   0  0  0  0  0  0  0  0  0  0  0  0
   20.1140  -18.1147    5.7092 H   0  0  0  0  0  0  0  0  0  0  0  0
   22.3510  -16.9026    6.9374 H   0  0  0  0  0  0  0  0  0  0  0  0
   24.2431  -14.4307    3.9430 H   0  0  0  0  0  0  0  0  0  0  0  0
   22.2361  -14.7146    2.5087 H   0  0  0  0  0  0  0  0  0  0  0  0
   20.2623  -15.6079    3.5124 H   0  0  0  0  0  0  0  0  0  0  0  0
   23.6616  -16.2807    1.4452 H   0  0  0  0  0  0  0  0  0  0  0  0
   25.1912  -17.1159    1.5423 H   0  0  0  0  0  0  0  0  0  0  0  0
   25.1458  -15.3544    1.7782 H   0  0  0  0  0  0  0  0  0  0  0  0
   25.6809  -17.0127    5.0730 H   0  0  0  0  0  0  0  0  0  0  0  0
   26.3540  -15.7766    3.9779 H   0  0  0  0  0  0  0  0  0  0  0  0
   26.3020  -17.4925    3.5159 H   0  0  0  0  0  0  0  0  0  0  0  0
   20.8798  -10.0634    9.1731 H   0  0  0  0  0  0  0  0  0  0  0  0
   21.0699   -8.6459    8.1069 H   0  0  0  0  0  0  0  0  0  0  0  0
   22.9885  -11.0300    8.2510 H   0  0  0  0  0  0  0  0  0  0  0  0
   23.2787   -9.4258    8.9636 H   0  0  0  0  0  0  0  0  0  0  0  0
   23.1826   -9.6341    7.1987 H   0  0  0  0  0  0  0  0  0  0  0  0
  1  2  1  0  0  0  0
  1 40  1  0  0  0  0
  1 41  1  0  0  0  0
  1 42  1  0  0  0  0
  2  3  1  0  0  0  0
  2 43  1  0  0  0  0
  2 44  1  0  0  0  0
  3  4  1  0  0  0  0
  3 45  1  0  0  0  0
  3 46  1  0  0  0  0
  4  5  1  0  0  0  0
  4 47  1  0  0  0  0
  4 48  1  0  0  0  0
  5  6  1  0  0  0  0
  5 49  1  0  0  0  0
  5 50  1  0  0  0  0
  6  7  1  0  0  0  0
  6 51  1  0  0  0  0
  6 52  1  0  0  0  0
  7  8  1  0  0  0  0
  7 53  1  0  0  0  0
  7 54  1  0  0  0  0
  8  9  1  0  0  0  0
  8 55  1  0  0  0  0
  8 56  1  0  0  0  0
  9 10  1  0  0  0  0
  9 57  1  0  0  0  0
  9 58  1  0  0  0  0
 10 11  1  0  0  0  0
 10 59  1  0  0  0  0
 10 60  1  0  0  0  0
 11 12  1  0  0  0  0
 11 61  1  0  0  0  0
 11 62  1  0  0  0  0
 12 13  1  0  0  0  0
 12 63  1  0  0  0  0
 12 64  1  0  0  0  0
 13 14  1  0  0  0  0
 13 65  1  0  0  0  0
 13 66  1  0  0  0  0
 14 15  1  0  0  0  0
 14 67  1  0  0  0  0
 14 68  1  0  0  0  0
 15 16  1  0  0  0  0
 15 69  1  0  0  0  0
 15 70  1  0  0  0  0
 16 17  1  0  0  0  0
 16 71  1  0  0  0  0
 16 72  1  0  0  0  0
 17 18  1  0  0  0  0
 18 19  1  0  0  0  0
 18 73  1  0  0  0  0
 18 74  1  0  0  0  0
 19 20  1  0  0  0  0
 19 37  1  0  0  0  0
 19 75  1  0  0  0  0
 20 21  1  0  0  0  0
 20 76  1  0  0  0  0
 20 77  1  0  0  0  0
 21 22  1  0  0  0  0
 22 23  1  0  0  0  0
 22 24  1  0  0  0  0
 24 25  1  0  0  0  0
 25 26  1  0  0  0  0
 25 78  1  0  0  0  0
 25 79  1  0  0  0  0
 26 27  1  0  0  0  0
 26 80  1  0  0  0  0
 26 81  1  0  0  0  0
 27 28  2  0  0  0  0
 27 33  1  0  0  0  0
 28 29  1  0  0  0  0
 28 82  1  0  0  0  0
 29 30  2  0  0  0  0
 29 31  1  0  0  0  0
 31 32  1  0  0  0  0
 31 34  1  0  0  0  0
 31 83  1  0  0  0  0
 32 33  2  0  0  0  0
 32 84  1  0  0  0  0
 33 85  1  0  0  0  0
 34 35  1  0  0  0  0
 34 36  1  0  0  0  0
 35 86  1  0  0  0  0
 35 87  1  0  0  0  0
 35 88  1  0  0  0  0
 36 89  1  0  0  0  0
 36 90  1  0  0  0  0
 36 91  1  0  0  0  0
 37 38  1  0  0  0  0
 38 39  1  0  0  0  0
 38 92  1  0  0  0  0
 38 93  1  0  0  0  0
 39 94  1  0  0  0  0
 39 95  1  0  0  0  0
 39 96  1  0  0  0  0
M  CHG  2  23  -1  27   1
M  END
