
 OpenBabel10072619433D

 61 63  0  0  0  0  0  0  0  0999 V2000
    1.3046    0.0101   -0.1076 C   0  0  0  0  0  0  0  0  0  0  0  0
    2.6325    0.7297   -0.2742 C   0  0  0  0  0  0  0  0  0  0  0  0
    3.2973    1.0079    1.0748 C   0  0  0  0  0  0  0  0  0  0  0  0
    4.5964    1.7822    0.9156 C   0  0  0  0  0  0  0  0  0  0  0  0
    4.9753    2.1723   -0.1890 O   0  0  0  0  0  0  0  0  0  0  0  0
    5.3330    2.0238    2.0695 N   0  0  0  0  0  0  0  0  0  0  0  0
    4.7944    1.9452    3.4353 C   0  0  0  0  0  0  0  0  0  0  0  0
    4.3709    3.3478    3.9296 C   0  0  0  0  0  0  0  0  0  0  0  0
    5.4556    4.3453    3.7643 N   0  0  0  0  0  0  0  0  0  0  0  0
    6.0324    4.3662    2.3884 C   0  0  0  0  0  0  0  0  0  0  0  0
    6.4686    2.9475    1.9642 C   0  0  0  0  0  0  0  0  0  0  0  0
    6.3387    4.6319    4.8045 C   0  0  0  0  0  0  0  0  0  0  0  0
    6.4877    3.8369    5.9461 C   0  0  0  0  0  0  0  0  0  0  0  0
    7.4085    4.1547    6.9666 C   0  0  0  0  0  0  0  0  0  0  0  0
    8.2042    5.2916    6.8828 C   0  0  0  0  0  0  0  0  0  0  0  0
    8.0358    6.1162    5.7678 C   0  0  0  0  0  0  0  0  0  0  0  0
    7.1182    5.7952    4.7594 C   0  0  0  0  0  0  0  0  0  0  0  0
    9.1859    5.7077    7.8072 N   0  0  0  0  0  0  0  0  0  0  0  0
    9.6659    5.2051    8.9917 C   0  0  0  0  0  0  0  0  0  0  0  0
    9.1910    3.8604    9.8587 S   0  0  0  0  0  0  0  0  0  0  0  0
   10.7164    5.9341    9.5405 N   0  0  0  0  0  0  0  0  0  0  0  0
   11.3504    7.0675    9.0427 C   0  0  0  0  0  0  0  0  0  0  0  0
   11.0169    7.6305    8.0027 O   0  0  0  0  0  0  0  0  0  0  0  0
   12.5124    7.5705    9.8209 C   0  0  0  0  0  0  0  0  0  0  0  0
   13.5768    8.1500    9.1176 C   0  0  0  0  0  0  0  0  0  0  0  0
   14.7116    8.6083    9.7966 C   0  0  0  0  0  0  0  0  0  0  0  0
   14.7516    8.5171   11.1942 C   0  0  0  0  0  0  0  0  0  0  0  0
   13.6863    7.9551   11.9116 C   0  0  0  0  0  0  0  0  0  0  0  0
   12.5629    7.4851   11.2176 C   0  0  0  0  0  0  0  0  0  0  0  0
   13.7375    7.8598   13.4091 C   0  0  0  0  0  0  0  0  0  0  0  0
   15.8472    9.2393    9.0446 C   0  0  0  0  0  0  0  0  0  0  0  0
    0.8480   -0.1710   -1.0860 H   0  0  0  0  0  0  0  0  0  0  0  0
    0.6069    0.6086    0.4874 H   0  0  0  0  0  0  0  0  0  0  0  0
    1.4429   -0.9558    0.3889 H   0  0  0  0  0  0  0  0  0  0  0  0
    2.4646    1.6707   -0.8124 H   0  0  0  0  0  0  0  0  0  0  0  0
    3.2985    0.1222   -0.8992 H   0  0  0  0  0  0  0  0  0  0  0  0
    3.5094    0.0597    1.5815 H   0  0  0  0  0  0  0  0  0  0  0  0
    2.6150    1.6015    1.6933 H   0  0  0  0  0  0  0  0  0  0  0  0
    5.5903    1.5376    4.0689 H   0  0  0  0  0  0  0  0  0  0  0  0
    3.9474    1.2578    3.4940 H   0  0  0  0  0  0  0  0  0  0  0  0
    3.9987    3.3064    4.9593 H   0  0  0  0  0  0  0  0  0  0  0  0
    3.5232    3.6849    3.3191 H   0  0  0  0  0  0  0  0  0  0  0  0
    6.8803    5.0506    2.2864 H   0  0  0  0  0  0  0  0  0  0  0  0
    5.2538    4.7314    1.7073 H   0  0  0  0  0  0  0  0  0  0  0  0
    7.2609    2.5754    2.6239 H   0  0  0  0  0  0  0  0  0  0  0  0
    6.8694    2.9680    0.9458 H   0  0  0  0  0  0  0  0  0  0  0  0
    5.9113    2.9260    6.0724 H   0  0  0  0  0  0  0  0  0  0  0  0
    7.4631    3.4675    7.7998 H   0  0  0  0  0  0  0  0  0  0  0  0
    8.6124    7.0327    5.6620 H   0  0  0  0  0  0  0  0  0  0  0  0
    7.0039    6.4959    3.9354 H   0  0  0  0  0  0  0  0  0  0  0  0
    9.6721    6.5622    7.5263 H   0  0  0  0  0  0  0  0  0  0  0  0
   11.0928    5.5034   10.3743 H   0  0  0  0  0  0  0  0  0  0  0  0
   13.5241    8.2345    8.0328 H   0  0  0  0  0  0  0  0  0  0  0  0
   15.6235    8.8902   11.7296 H   0  0  0  0  0  0  0  0  0  0  0  0
   11.7262    7.0825   11.7827 H   0  0  0  0  0  0  0  0  0  0  0  0
   14.6702    8.2752   13.8047 H   0  0  0  0  0  0  0  0  0  0  0  0
   13.6796    6.8119   13.7204 H   0  0  0  0  0  0  0  0  0  0  0  0
   12.9054    8.4155   13.8538 H   0  0  0  0  0  0  0  0  0  0  0  0
   15.8965    8.8602    8.0182 H   0  0  0  0  0  0  0  0  0  0  0  0
   16.8058    9.0071    9.5211 H   0  0  0  0  0  0  0  0  0  0  0  0
   15.7183   10.3254    9.0133 H   0  0  0  0  0  0  0  0  0  0  0  0
  1  2  1  0  0  0  0
  1 32  1  0  0  0  0
  1 33  1  0  0  0  0
  1 34  1  0  0  0  0
  2  3  1  0  0  0  0
  2 35  1  0  0  0  0
  2 36  1  0  0  0  0
  3  4  1  0  0  0  0
  3 37  1  0  0  0  0
  3 38  1  0  0  0  0
  4  5  2  0  0  0  0
  4  6  1  0  0  0  0
  6  7  1  0  0  0  0
  6 11  1  0  0  0  0
  7  8  1  0  0  0  0
  7 39  1  0  0  0  0
  7 40  1  0  0  0  0
  8  9  1  0  0  0  0
  8 41  1  0  0  0  0
  8 42  1  0  0  0  0
  9 10  1  0  0  0  0
  9 12  1  0  0  0  0
 10 11  1  0  0  0  0
 10 43  1  0  0  0  0
 10 44  1  0  0  0  0
 11 45  1  0  0  0  0
 11 46  1  0  0  0  0
 12 13  2  0  0  0  0
 12 17  1  0  0  0  0
 13 14  1  0  0  0  0
 13 47  1  0  0  0  0
 14 15  2  0  0  0  0
 14 48  1  0  0  0  0
 15 16  1  0  0  0  0
 15 18  1  0  0  0  0
 16 17  2  0  0  0  0
 16 49  1  0  0  0  0
 17 50  1  0  0  0  0
 18 19  1  0  0  0  0
 18 51  1  0  0  0  0
 19 20  2  0  0  0  0
 19 21  1  0  0  0  0
 21 22  1  0  0  0  0
 21 52  1  0  0  0  0
 22 23  2  0  0  0  0
 22 24  1  0  0  0  0
 24 25  2  0  0  0  0
 24 29  1  0  0  0  0
 25 26  1  0  0  0  0
 25 53  1  0  0  0  0
 26 27  2  0  0  0  0
 26 31  1  0  0  0  0
 27 28  1  0  0  0  0
 27 54  1  0  0  0  0
 28 29  2  0  0  0  0
 28 30  1  0  0  0  0
 29 55  1  0  0  0  0
 30 56  1  0  0  0  0
 30 57  1  0  0  0  0
 30 58  1  0  0  0  0
 31 59  1  0  0  0  0
 31 60  1  0  0  0  0
 31 61  1  0  0  0  0
M  END
