
 OpenBabel10072620123D

 28 29  0  0  0  0  0  0  0  0999 V2000
   -0.4524   -0.4733    0.0360 C   0  0  0  0  0  0  0  0  0  0  0  0
   -0.0933    0.8730   -0.0943 C   0  0  0  0  0  0  0  0  0  0  0  0
    1.2478    1.2602   -0.0405 C   0  0  0  0  0  0  0  0  0  0  0  0
    2.2297    0.2755    0.1258 C   0  0  0  0  0  0  0  0  0  0  0  0
    1.8674   -1.0680    0.2460 C   0  0  0  0  0  0  0  0  0  0  0  0
    0.5289   -1.4470    0.2065 C   0  0  0  0  0  0  0  0  0  0  0  0
    3.0895   -2.2664    0.4366 Cl  0  0  0  0  0  0  0  0  0  0  0  0
    1.6848    2.5946   -0.1776 N   0  0  0  0  0  0  0  0  0  0  0  0
    0.9048    3.7416   -0.1947 C   0  0  0  0  0  0  0  0  0  0  0  0
   -0.2954    3.7821    0.0371 O   0  0  0  0  0  0  0  0  0  0  0  0
    1.6864    4.8402   -0.5121 N   0  0  0  0  0  0  0  0  0  0  0  0
    1.3167    6.2083   -0.4921 C   0  0  0  0  0  0  0  0  0  0  0  0
    2.1827    7.1493   -1.0911 C   0  0  0  0  0  0  0  0  0  0  0  0
    1.8718    8.5168   -1.0578 C   0  0  0  0  0  0  0  0  0  0  0  0
    0.7054    8.9523   -0.4264 C   0  0  0  0  0  0  0  0  0  0  0  0
   -0.1501    8.0288    0.1694 C   0  0  0  0  0  0  0  0  0  0  0  0
    0.1517    6.6645    0.1352 C   0  0  0  0  0  0  0  0  0  0  0  0
    2.8939    9.7220   -1.7605 Cl  0  0  0  0  0  0  0  0  0  0  0  0
    3.6359    6.5848   -1.8673 Cl  0  0  0  0  0  0  0  0  0  0  0  0
   -1.5017   -0.7564   -0.0042 H   0  0  0  0  0  0  0  0  0  0  0  0
   -0.8894    1.5965   -0.2441 H   0  0  0  0  0  0  0  0  0  0  0  0
    3.2823    0.5414    0.1606 H   0  0  0  0  0  0  0  0  0  0  0  0
    0.2450   -2.4921    0.2952 H   0  0  0  0  0  0  0  0  0  0  0  0
    2.6801    2.7457   -0.1077 H   0  0  0  0  0  0  0  0  0  0  0  0
    2.5595    4.6427   -0.9859 H   0  0  0  0  0  0  0  0  0  0  0  0
    0.4611   10.0116   -0.3887 H   0  0  0  0  0  0  0  0  0  0  0  0
   -1.0541    8.3685    0.6713 H   0  0  0  0  0  0  0  0  0  0  0  0
   -0.5355    5.9810    0.6271 H   0  0  0  0  0  0  0  0  0  0  0  0
  1  2  2  0  0  0  0
  1  6  1  0  0  0  0
  1 20  1  0  0  0  0
  2  3  1  0  0  0  0
  2 21  1  0  0  0  0
  3  4  2  0  0  0  0
  3  8  1  0  0  0  0
  4  5  1  0  0  0  0
  4 22  1  0  0  0  0
  5  6  2  0  0  0  0
  5  7  1  0  0  0  0
  6 23  1  0  0  0  0
  8  9  1  0  0  0  0
  8 24  1  0  0  0  0
  9 10  2  0  0  0  0
  9 11  1  0  0  0  0
 11 12  1  0  0  0  0
 11 25  1  0  0  0  0
 12 13  2  0  0  0  0
 12 17  1  0  0  0  0
 13 14  1  0  0  0  0
 13 19  1  0  0  0  0
 14 15  2  0  0  0  0
 14 18  1  0  0  0  0
 15 16  1  0  0  0  0
 15 26  1  0  0  0  0
 16 17  2  0  0  0  0
 16 27  1  0  0  0  0
 17 28  1  0  0  0  0
M  END
