
 OpenBabel10072619493D

 32 34  0  0  0  0  0  0  0  0999 V2000
    2.2857    0.6622   -0.3971 C   0  0  0  0  0  0  0  0  0  0  0  0
    0.8303    0.3763   -0.1640 C   0  0  0  0  0  0  0  0  0  0  0  0
    0.1263    1.0787    0.8236 C   0  0  0  0  0  0  0  0  0  0  0  0
   -1.2321    0.8379    1.0366 C   0  0  0  0  0  0  0  0  0  0  0  0
   -1.8906   -0.1203    0.2619 C   0  0  0  0  0  0  0  0  0  0  0  0
   -1.1872   -0.8710   -0.6826 C   0  0  0  0  0  0  0  0  0  0  0  0
    0.1713   -0.6222   -0.8947 C   0  0  0  0  0  0  0  0  0  0  0  0
   -3.6115   -0.4417    0.5496 S   0  0  0  0  0  0  0  0  0  0  0  0
   -3.9428   -1.7719    0.0895 O   0  0  0  0  0  0  0  0  0  0  0  0
   -3.8884   -0.0649    1.9245 O   0  0  0  0  0  0  0  0  0  0  0  0
   -4.3812    0.7119   -0.3679 N   0  0  0  0  0  0  0  0  0  0  0  0
   -4.6025    0.4535   -1.7270 C   0  0  0  0  0  0  0  0  0  0  0  0
   -3.7919   -0.2610   -2.4624 N   0  0  0  0  0  0  0  0  0  0  0  0
   -4.2660   -0.3159   -3.7620 C   0  0  0  0  0  0  0  0  0  0  0  0
   -5.4540    0.3842   -3.9922 C   0  0  0  0  0  0  0  0  0  0  0  0
   -5.9323    1.1600   -2.5304 S   0  0  0  0  0  0  0  0  0  0  0  0
   -6.0810    0.3992   -5.2492 C   0  0  0  0  0  0  0  0  0  0  0  0
   -5.4691   -0.3061   -6.2887 C   0  0  0  0  0  0  0  0  0  0  0  0
   -4.2753   -0.9969   -6.0958 C   0  0  0  0  0  0  0  0  0  0  0  0
   -3.6641   -1.0080   -4.8355 C   0  0  0  0  0  0  0  0  0  0  0  0
   -6.2879   -0.3161   -7.9955 Br  0  0  0  0  0  0  0  0  0  0  0  0
    2.5075    1.7177   -0.2030 H   0  0  0  0  0  0  0  0  0  0  0  0
    2.5606    0.4658   -1.4386 H   0  0  0  0  0  0  0  0  0  0  0  0
    2.9059    0.0435    0.2583 H   0  0  0  0  0  0  0  0  0  0  0  0
    0.6359    1.8211    1.4346 H   0  0  0  0  0  0  0  0  0  0  0  0
   -1.7627    1.3945    1.8054 H   0  0  0  0  0  0  0  0  0  0  0  0
   -1.6925   -1.6382   -1.2658 H   0  0  0  0  0  0  0  0  0  0  0  0
    0.7082   -1.2075   -1.6389 H   0  0  0  0  0  0  0  0  0  0  0  0
   -5.0503    1.2883    0.1318 H   0  0  0  0  0  0  0  0  0  0  0  0
   -7.0124    0.9371   -5.3995 H   0  0  0  0  0  0  0  0  0  0  0  0
   -3.8115   -1.5393   -6.9171 H   0  0  0  0  0  0  0  0  0  0  0  0
   -2.7369   -1.5537   -4.6755 H   0  0  0  0  0  0  0  0  0  0  0  0
  1  2  1  0  0  0  0
  1 22  1  0  0  0  0
  1 23  1  0  0  0  0
  1 24  1  0  0  0  0
  2  3  2  0  0  0  0
  2  7  1  0  0  0  0
  3  4  1  0  0  0  0
  3 25  1  0  0  0  0
  4  5  2  0  0  0  0
  4 26  1  0  0  0  0
  5  6  1  0  0  0  0
  5  8  1  0  0  0  0
  6  7  2  0  0  0  0
  6 27  1  0  0  0  0
  7 28  1  0  0  0  0
  8  9  2  0  0  0  0
  8 10  2  0  0  0  0
  8 11  1  0  0  0  0
 11 12  1  0  0  0  0
 11 29  1  0  0  0  0
 12 13  2  0  0  0  0
 12 16  1  0  0  0  0
 13 14  1  0  0  0  0
 14 15  2  0  0  0  0
 14 20  1  0  0  0  0
 15 16  1  0  0  0  0
 15 17  1  0  0  0  0
 17 18  2  0  0  0  0
 17 30  1  0  0  0  0
 18 19  1  0  0  0  0
 18 21  1  0  0  0  0
 19 20  2  0  0  0  0
 19 31  1  0  0  0  0
 20 32  1  0  0  0  0
M  END
