
 OpenBabel10072619473D

 50 53  0  0  0  0  0  0  0  0999 V2000
   -2.5560    2.7009   -0.1023 C   0  0  0  0  0  0  0  0  0  0  0  0
   -2.0355    1.2899   -0.1086 C   0  0  0  0  0  0  0  0  0  0  0  0
   -2.9464    0.2310   -0.2125 C   0  0  0  0  0  0  0  0  0  0  0  0
   -2.4980   -1.0865   -0.2210 C   0  0  0  0  0  0  0  0  0  0  0  0
   -1.1815   -1.3672   -0.1464 N   0  0  0  0  0  0  0  0  0  0  0  0
   -0.2909   -0.3656   -0.0337 C   0  0  0  0  0  0  0  0  0  0  0  0
   -0.6587    0.9929   -0.0226 C   0  0  0  0  0  0  0  0  0  0  0  0
    0.3573    1.9790    0.0783 C   0  0  0  0  0  0  0  0  0  0  0  0
    1.7039    1.6323    0.1838 C   0  0  0  0  0  0  0  0  0  0  0  0
    2.0416    0.2831    0.2386 C   0  0  0  0  0  0  0  0  0  0  0  0
    1.0487   -0.6945    0.1000 C   0  0  0  0  0  0  0  0  0  0  0  0
    2.7462    2.5753    0.3170 N   0  0  0  0  0  0  0  0  0  0  0  0
    2.8266    3.8694   -0.1452 C   0  0  0  0  0  0  0  0  0  0  0  0
    1.9196    4.6136   -1.3371 S   0  0  0  0  0  0  0  0  0  0  0  0
    3.8290    4.6174    0.4292 N   0  0  0  0  0  0  0  0  0  0  0  0
    4.5557    4.3156    1.6216 C   0  0  0  0  0  0  0  0  0  0  0  0
    5.7126    5.1953    2.0151 C   0  0  0  0  0  0  0  0  0  0  0  0
    5.9603    3.7829    1.5773 C   0  0  0  0  0  0  0  0  0  0  0  0
   -3.4398   -2.1316   -0.3464 N   0  0  0  0  0  0  0  0  0  0  0  0
   -2.8020   -3.4316   -0.6507 C   0  0  0  0  0  0  0  0  0  0  0  0
   -3.8755   -4.5289   -0.8302 C   0  0  0  0  0  0  0  0  0  0  0  0
   -4.7588   -4.6528    0.3513 N   0  0  0  0  0  0  0  0  0  0  0  0
   -5.3847   -3.3409    0.6201 C   0  0  0  0  0  0  0  0  0  0  0  0
   -4.3342   -2.2219    0.8297 C   0  0  0  0  0  0  0  0  0  0  0  0
   -5.7625   -5.6907    0.1413 C   0  0  0  0  0  0  0  0  0  0  0  0
   -3.6505    2.7281   -0.1368 H   0  0  0  0  0  0  0  0  0  0  0  0
   -2.1839    3.2462   -0.9754 H   0  0  0  0  0  0  0  0  0  0  0  0
   -2.2495    3.2172    0.8136 H   0  0  0  0  0  0  0  0  0  0  0  0
   -4.0076    0.4345   -0.3150 H   0  0  0  0  0  0  0  0  0  0  0  0
    0.0665    3.0234    0.1195 H   0  0  0  0  0  0  0  0  0  0  0  0
    3.0726   -0.0343    0.3583 H   0  0  0  0  0  0  0  0  0  0  0  0
    1.3327   -1.7445    0.1005 H   0  0  0  0  0  0  0  0  0  0  0  0
    3.6398    2.2047    0.6136 H   0  0  0  0  0  0  0  0  0  0  0  0
    3.8658    5.5741    0.0899 H   0  0  0  0  0  0  0  0  0  0  0  0
    3.9175    3.9883    2.4399 H   0  0  0  0  0  0  0  0  0  0  0  0
    5.8236    5.4367    3.0659 H   0  0  0  0  0  0  0  0  0  0  0  0
    6.0142    5.9904    1.3432 H   0  0  0  0  0  0  0  0  0  0  0  0
    6.2749    3.0787    2.3391 H   0  0  0  0  0  0  0  0  0  0  0  0
    6.4302    3.6334    0.6124 H   0  0  0  0  0  0  0  0  0  0  0  0
   -2.1203   -3.7350    0.1559 H   0  0  0  0  0  0  0  0  0  0  0  0
   -2.2281   -3.3602   -1.5835 H   0  0  0  0  0  0  0  0  0  0  0  0
   -3.3639   -5.4826   -1.0039 H   0  0  0  0  0  0  0  0  0  0  0  0
   -4.4699   -4.3053   -1.7265 H   0  0  0  0  0  0  0  0  0  0  0  0
   -6.0013   -3.4055    1.5242 H   0  0  0  0  0  0  0  0  0  0  0  0
   -6.0464   -3.0571   -0.2097 H   0  0  0  0  0  0  0  0  0  0  0  0
   -3.7497   -2.4346    1.7360 H   0  0  0  0  0  0  0  0  0  0  0  0
   -4.8745   -1.2816    0.9909 H   0  0  0  0  0  0  0  0  0  0  0  0
   -5.2754   -6.6608   -0.0081 H   0  0  0  0  0  0  0  0  0  0  0  0
   -6.4020   -5.4901   -0.7254 H   0  0  0  0  0  0  0  0  0  0  0  0
   -6.4013   -5.7945    1.0253 H   0  0  0  0  0  0  0  0  0  0  0  0
  1  2  1  0  0  0  0
  1 26  1  0  0  0  0
  1 27  1  0  0  0  0
  1 28  1  0  0  0  0
  2  3  2  0  0  0  0
  2  7  1  0  0  0  0
  3  4  1  0  0  0  0
  3 29  1  0  0  0  0
  4  5  2  0  0  0  0
  4 19  1  0  0  0  0
  5  6  1  0  0  0  0
  6  7  2  0  0  0  0
  6 11  1  0  0  0  0
  7  8  1  0  0  0  0
  8  9  2  0  0  0  0
  8 30  1  0  0  0  0
  9 10  1  0  0  0  0
  9 12  1  0  0  0  0
 10 11  2  0  0  0  0
 10 31  1  0  0  0  0
 11 32  1  0  0  0  0
 12 13  1  0  0  0  0
 12 33  1  0  0  0  0
 13 14  2  0  0  0  0
 13 15  1  0  0  0  0
 15 16  1  0  0  0  0
 15 34  1  0  0  0  0
 16 17  1  0  0  0  0
 16 18  1  0  0  0  0
 16 35  1  0  0  0  0
 17 18  1  0  0  0  0
 17 36  1  0  0  0  0
 17 37  1  0  0  0  0
 18 38  1  0  0  0  0
 18 39  1  0  0  0  0
 19 20  1  0  0  0  0
 19 24  1  0  0  0  0
 20 21  1  0  0  0  0
 20 40  1  0  0  0  0
 20 41  1  0  0  0  0
 21 22  1  0  0  0  0
 21 42  1  0  0  0  0
 21 43  1  0  0  0  0
 22 23  1  0  0  0  0
 22 25  1  0  0  0  0
 23 24  1  0  0  0  0
 23 44  1  0  0  0  0
 23 45  1  0  0  0  0
 24 46  1  0  0  0  0
 24 47  1  0  0  0  0
 25 48  1  0  0  0  0
 25 49  1  0  0  0  0
 25 50  1  0  0  0  0
M  END
