
 OpenBabel10072620093D

 41 43  0  0  0  0  0  0  0  0999 V2000
    0.9946   -0.1045    0.3353 C   0  0  0  0  0  0  0  0  0  0  0  0
    2.3611    0.3672   -0.0678 C   0  0  0  0  0  0  0  0  0  0  0  0
    2.7511    0.1553   -1.2213 O   0  0  0  0  0  0  0  0  0  0  0  0
    3.1498    1.0382    0.8405 N   0  0  0  0  0  0  0  0  0  0  0  0
    4.4562    1.5475    0.3990 C   0  0  0  0  0  0  0  0  0  0  0  0
    5.0560    2.3542    1.5493 C   0  0  0  0  0  0  0  0  0  0  0  0
    4.0871    2.0779    2.6549 C   0  0  0  0  0  0  0  0  0  0  0  0
    2.9906    1.3280    2.2081 C   0  0  0  0  0  0  0  0  0  0  0  0
    1.9859    0.9790    3.0972 C   0  0  0  0  0  0  0  0  0  0  0  0
    2.0829    1.3974    4.4312 C   0  0  0  0  0  0  0  0  0  0  0  0
    3.1811    2.1597    4.8586 C   0  0  0  0  0  0  0  0  0  0  0  0
    4.2019    2.5033    3.9724 C   0  0  0  0  0  0  0  0  0  0  0  0
    3.2812    2.6411    6.5629 S   0  0  0  0  0  0  0  0  0  0  0  0
    3.0073    1.4607    7.3520 O   0  0  0  0  0  0  0  0  0  0  0  0
    4.4737    3.4337    6.7629 O   0  0  0  0  0  0  0  0  0  0  0  0
    1.9379    3.6414    6.7482 N   0  0  0  0  0  0  0  0  0  0  0  0
    2.0853    5.0882    6.5579 C   0  0  0  0  0  0  0  0  0  0  0  0
    0.7575    5.7867    6.8546 C   0  0  0  0  0  0  0  0  0  0  0  0
    0.7914    7.0850    6.0507 C   0  0  0  0  0  0  0  0  0  0  0  0
    1.9571    6.9527    5.0741 C   0  0  0  0  0  0  0  0  0  0  0  0
    2.3503    5.4826    5.1129 C   0  0  0  0  0  0  0  0  0  0  0  0
    0.4676   -0.4721   -0.5511 H   0  0  0  0  0  0  0  0  0  0  0  0
    0.4063    0.7215    0.7404 H   0  0  0  0  0  0  0  0  0  0  0  0
    1.0749   -0.9331    1.0417 H   0  0  0  0  0  0  0  0  0  0  0  0
    4.3298    2.1597   -0.5017 H   0  0  0  0  0  0  0  0  0  0  0  0
    5.0908    0.6913    0.1384 H   0  0  0  0  0  0  0  0  0  0  0  0
    5.0746    3.4229    1.3123 H   0  0  0  0  0  0  0  0  0  0  0  0
    6.0660    2.0107    1.7921 H   0  0  0  0  0  0  0  0  0  0  0  0
    1.1297    0.3807    2.8200 H   0  0  0  0  0  0  0  0  0  0  0  0
    1.3046    1.1182    5.1388 H   0  0  0  0  0  0  0  0  0  0  0  0
    5.0619    3.0809    4.2986 H   0  0  0  0  0  0  0  0  0  0  0  0
    1.3889    3.3391    7.5540 H   0  0  0  0  0  0  0  0  0  0  0  0
    2.8534    5.4872    7.2312 H   0  0  0  0  0  0  0  0  0  0  0  0
    0.6275    5.9730    7.9261 H   0  0  0  0  0  0  0  0  0  0  0  0
   -0.0955    5.1774    6.5288 H   0  0  0  0  0  0  0  0  0  0  0  0
    0.9336    7.9521    6.7048 H   0  0  0  0  0  0  0  0  0  0  0  0
   -0.1549    7.2288    5.5176 H   0  0  0  0  0  0  0  0  0  0  0  0
    2.7955    7.5737    5.4130 H   0  0  0  0  0  0  0  0  0  0  0  0
    1.6886    7.2809    4.0653 H   0  0  0  0  0  0  0  0  0  0  0  0
    3.3948    5.3397    4.8211 H   0  0  0  0  0  0  0  0  0  0  0  0
    1.7220    4.9083    4.4206 H   0  0  0  0  0  0  0  0  0  0  0  0
  1  2  1  0  0  0  0
  1 22  1  0  0  0  0
  1 23  1  0  0  0  0
  1 24  1  0  0  0  0
  2  3  2  0  0  0  0
  2  4  1  0  0  0  0
  4  5  1  0  0  0  0
  4  8  1  0  0  0  0
  5  6  1  0  0  0  0
  5 25  1  0  0  0  0
  5 26  1  0  0  0  0
  6  7  1  0  0  0  0
  6 27  1  0  0  0  0
  6 28  1  0  0  0  0
  7  8  2  0  0  0  0
  7 12  1  0  0  0  0
  8  9  1  0  0  0  0
  9 10  2  0  0  0  0
  9 29  1  0  0  0  0
 10 11  1  0  0  0  0
 10 30  1  0  0  0  0
 11 12  2  0  0  0  0
 11 13  1  0  0  0  0
 12 31  1  0  0  0  0
 13 14  2  0  0  0  0
 13 15  2  0  0  0  0
 13 16  1  0  0  0  0
 16 17  1  0  0  0  0
 16 32  1  0  0  0  0
 17 18  1  0  0  0  0
 17 21  1  0  0  0  0
 17 33  1  0  0  0  0
 18 19  1  0  0  0  0
 18 34  1  0  0  0  0
 18 35  1  0  0  0  0
 19 20  1  0  0  0  0
 19 36  1  0  0  0  0
 19 37  1  0  0  0  0
 20 21  1  0  0  0  0
 20 38  1  0  0  0  0
 20 39  1  0  0  0  0
 21 40  1  0  0  0  0
 21 41  1  0  0  0  0
M  END
