
 OpenBabel10072616313D

 38 39  0  0  0  0  0  0  0  0999 V2000
    1.6100   -0.5056    0.3255 C   0  0  0  0  0  0  0  0  0  0  0  0
    2.5360    0.5753    0.3616 O   0  0  0  0  0  0  0  0  0  0  0  0
    2.9061    1.0702   -0.8609 C   0  0  0  0  0  0  0  0  0  0  0  0
    3.1950    0.3130   -2.0044 C   0  0  0  0  0  0  0  0  0  0  0  0
    3.6243    0.9664   -3.1702 C   0  0  0  0  0  0  0  0  0  0  0  0
    3.7295    2.3635   -3.2198 C   0  0  0  0  0  0  0  0  0  0  0  0
    3.4301    3.1060   -2.0802 C   0  0  0  0  0  0  0  0  0  0  0  0
    3.0409    2.4599   -0.9042 C   0  0  0  0  0  0  0  0  0  0  0  0
    4.1777    2.9341   -4.4274 N   0  0  0  0  0  0  0  0  0  0  0  0
    4.1773    4.2664   -4.7773 C   0  0  0  0  0  0  0  0  0  0  0  0
    3.7128    5.1984   -4.1360 O   0  0  0  0  0  0  0  0  0  0  0  0
    4.7466    4.4341   -6.0231 N   0  0  0  0  0  0  0  0  0  0  0  0
    4.8175    5.7599   -6.5993 C   0  0  0  0  0  0  0  0  0  0  0  0
    5.1530    5.7160   -8.0625 C   0  0  0  0  0  0  0  0  0  0  0  0
    6.0056    6.6627   -8.6213 C   0  0  0  0  0  0  0  0  0  0  0  0
    6.3354    6.7103   -9.9326 N   0  0  0  0  0  0  0  0  0  0  0  0
    5.7788    5.7797  -10.7360 C   0  0  0  0  0  0  0  0  0  0  0  0
    4.9083    4.8015  -10.2872 C   0  0  0  0  0  0  0  0  0  0  0  0
    4.5846    4.7784   -8.9333 C   0  0  0  0  0  0  0  0  0  0  0  0
    3.1575   -1.0539   -1.9239 O   0  0  0  0  0  0  0  0  0  0  0  0
    2.5518   -1.6951   -3.0440 C   0  0  0  0  0  0  0  0  0  0  0  0
    2.1386   -1.4624    0.2867 H   0  0  0  0  0  0  0  0  0  0  0  0
    0.8946   -0.4181   -0.5000 H   0  0  0  0  0  0  0  0  0  0  0  0
    1.0384   -0.4849    1.2588 H   0  0  0  0  0  0  0  0  0  0  0  0
    3.9082    0.3798   -4.0367 H   0  0  0  0  0  0  0  0  0  0  0  0
    3.5151    4.1885   -2.0640 H   0  0  0  0  0  0  0  0  0  0  0  0
    2.8389    3.0507   -0.0128 H   0  0  0  0  0  0  0  0  0  0  0  0
    4.3815    2.2964   -5.1816 H   0  0  0  0  0  0  0  0  0  0  0  0
    5.5264    3.8251   -6.2236 H   0  0  0  0  0  0  0  0  0  0  0  0
    5.5843    6.3069   -6.0383 H   0  0  0  0  0  0  0  0  0  0  0  0
    3.8612    6.2745   -6.4521 H   0  0  0  0  0  0  0  0  0  0  0  0
    6.4647    7.4402   -8.0143 H   0  0  0  0  0  0  0  0  0  0  0  0
    6.0573    5.8454  -11.7839 H   0  0  0  0  0  0  0  0  0  0  0  0
    4.4838    4.0823  -10.9775 H   0  0  0  0  0  0  0  0  0  0  0  0
    3.8851    4.0320   -8.5641 H   0  0  0  0  0  0  0  0  0  0  0  0
    2.2904   -2.7136   -2.7407 H   0  0  0  0  0  0  0  0  0  0  0  0
    3.2553   -1.7669   -3.8785 H   0  0  0  0  0  0  0  0  0  0  0  0
    1.6300   -1.1897   -3.3535 H   0  0  0  0  0  0  0  0  0  0  0  0
  1  2  1  0  0  0  0
  1 22  1  0  0  0  0
  1 23  1  0  0  0  0
  1 24  1  0  0  0  0
  2  3  1  0  0  0  0
  3  4  2  0  0  0  0
  3  8  1  0  0  0  0
  4  5  1  0  0  0  0
  4 20  1  0  0  0  0
  5  6  2  0  0  0  0
  5 25  1  0  0  0  0
  6  7  1  0  0  0  0
  6  9  1  0  0  0  0
  7  8  2  0  0  0  0
  7 26  1  0  0  0  0
  8 27  1  0  0  0  0
  9 10  1  0  0  0  0
  9 28  1  0  0  0  0
 10 11  2  0  0  0  0
 10 12  1  0  0  0  0
 12 13  1  0  0  0  0
 12 29  1  0  0  0  0
 13 14  1  0  0  0  0
 13 30  1  0  0  0  0
 13 31  1  0  0  0  0
 14 15  2  0  0  0  0
 14 19  1  0  0  0  0
 15 16  1  0  0  0  0
 15 32  1  0  0  0  0
 16 17  2  0  0  0  0
 17 18  1  0  0  0  0
 17 33  1  0  0  0  0
 18 19  2  0  0  0  0
 18 34  1  0  0  0  0
 19 35  1  0  0  0  0
 20 21  1  0  0  0  0
 21 36  1  0  0  0  0
 21 37  1  0  0  0  0
 21 38  1  0  0  0  0
M  END
