
 OpenBabel10072616423D

197198  0  0  1  0  0  0  0  0999 V2000
    2.8552   -4.1401   -4.1285 C   0  0  0  0  0  0  0  0  0  0  0  0
    2.8825   -3.8845   -2.6142 C   0  0  1  0  0  0  0  0  0  0  0  0
    2.1193   -2.5856   -2.2931 C   0  0  0  0  0  0  0  0  0  0  0  0
    1.9671   -2.1246   -0.8362 C   0  0  0  0  0  0  0  0  0  0  0  0
    3.2119   -2.0505   -0.0054 C   0  0  0  0  0  0  0  0  0  0  0  0
    4.2203   -1.2056   -0.2725 C   0  0  0  0  0  0  0  0  0  0  0  0
    4.0117    0.2087    0.1334 C   0  0  0  0  0  0  0  0  0  0  0  0
    3.7187    1.1219   -0.6051 O   0  0  0  0  0  0  0  0  0  0  0  0
    4.3635    0.2738    1.4547 O   0  0  0  0  0  0  0  0  0  0  0  0
    4.7307    1.5673    2.0011 C   0  0  1  0  0  0  0  0  0  0  0  0
    3.5152    2.1633    2.7588 C   0  0  0  0  0  0  0  0  0  0  0  0
    3.1373    3.3617    1.9323 C   0  0  0  0  0  0  0  0  0  0  0  0
    3.6163    4.5970    2.1980 C   0  0  0  0  0  0  0  0  0  0  0  0
    4.2200    5.5151    1.1592 C   0  0  2  0  0  0  0  0  0  0  0  0
    3.4150    6.5938    0.4358 C   0  0  0  0  0  0  0  0  0  0  0  0
    2.5441    6.1936   -0.7543 C   0  0  1  0  0  0  0  0  0  0  0  0
    1.4795    5.1388   -0.5747 C   0  0  0  0  0  0  0  0  0  0  0  0
    0.3866    5.3241    0.4760 C   0  0  2  0  0  0  0  0  0  0  0  0
   -0.9256    5.9751    0.0254 C   0  0  1  0  0  0  0  0  0  0  0  0
   -1.4342    5.7537   -1.4152 C   0  0  1  0  0  0  0  0  0  0  0  0
   -1.8461    4.3938   -2.0728 C   0  0  2  0  0  0  0  0  0  0  0  0
   -1.2266    3.0259   -1.6897 C   0  0  2  0  0  0  0  0  0  0  0  0
   -1.4390    2.6161   -0.2347 C   0  0  0  0  0  0  0  0  0  0  0  0
   -0.2549    1.9791    0.5033 C   0  0  2  0  0  0  0  0  0  0  0  0
    0.0839    0.5509    0.1454 C   0  0  0  0  0  0  0  0  0  0  0  0
   -1.0174   -0.5085    0.2550 C   0  0  1  0  0  0  0  0  0  0  0  0
   -1.7157   -0.5312    1.6464 C   0  0  0  0  0  0  0  0  0  0  0  0
   -3.1011    0.1120    1.9306 C   0  0  2  0  0  0  0  0  0  0  0  0
   -4.1871   -0.4277    0.9918 C   0  0  1  0  0  0  0  0  0  0  0  0
   -4.2129   -1.9496    1.1861 C   0  0  0  0  0  0  0  0  0  0  0  0
   -4.5180   -2.6045    2.3365 C   0  0  0  0  0  0  0  0  0  0  0  0
   -5.9664   -2.8348    2.7428 C   0  0  1  0  0  0  0  0  0  0  0  0
   -6.8889   -3.5090    1.6285 C   0  0  2  0  0  0  0  0  0  0  0  0
   -6.2820   -3.6212    0.2222 C   0  0  0  0  0  0  0  0  0  0  0  0
   -5.4328   -4.3255   -0.5607 C   0  0  0  0  0  0  0  0  0  0  0  0
   -4.7344   -5.6488   -0.5397 C   0  0  1  0  0  0  0  0  0  0  0  0
   -3.6682   -6.0038    0.5141 C   0  0  2  0  0  0  0  0  0  0  0  0
   -2.1937   -5.6906    0.2740 C   0  0  0  0  0  0  0  0  0  0  0  0
   -1.5951   -4.6014   -0.2623 C   0  0  0  0  0  0  0  0  0  0  0  0
   -1.5068   -4.0271   -1.6273 C   0  0  0  0  0  0  0  0  0  0  0  0
   -0.8365   -4.7287   -2.8268 C   0  0  0  0  0  0  0  0  0  0  0  0
    0.1780   -5.8851   -2.7916 C   0  0  1  0  0  0  0  0  0  0  0  0
    1.3631   -6.0861   -1.8164 C   0  0  1  0  0  0  0  0  0  0  0  0
    2.6234   -5.1608   -1.7784 C   0  0  2  0  0  0  0  0  0  0  0  0
    3.0191   -4.9229   -0.4258 O   0  0  0  0  0  0  0  0  0  0  0  0
    0.9711   -6.6050   -0.4202 C   0  0  0  0  0  0  0  0  0  0  0  0
   -0.5925   -7.1045   -2.8063 O   0  0  0  0  0  0  0  0  0  0  0  0
   -3.7127   -7.4952    0.9052 C   0  0  0  0  0  0  0  0  0  0  0  0
   -5.7898   -6.6144   -0.5607 O   0  0  0  0  0  0  0  0  0  0  0  0
   -8.2344   -2.6815    1.5812 C   0  0  0  0  0  0  0  0  0  0  0  0
   -6.0074   -3.7073    3.8813 O   0  0  0  0  0  0  0  0  0  0  0  0
   -3.4303   -3.4053    3.0173 C   0  0  0  0  0  0  0  0  0  0  0  0
   -5.4075    0.3062    1.0707 O   0  0  0  0  0  0  0  0  0  0  0  0
   -6.3548   -0.0814    0.0865 C   0  0  2  0  0  0  0  0  0  0  0  0
   -6.0759   -0.1913   -1.4398 C   0  0  2  0  0  0  0  0  0  0  0  0
   -6.4892    1.0687   -2.1646 C   0  0  2  0  0  0  0  0  0  0  0  0
   -7.9109    1.4787   -1.7732 C   0  0  1  0  0  0  0  0  0  0  0  0
   -7.9206    1.6910   -0.2576 C   0  0  2  0  0  0  0  0  0  0  0  0
   -7.6588    0.4352    0.3765 O   0  0  0  0  0  0  0  0  0  0  0  0
   -9.2422    2.2668    0.2641 C   0  0  0  0  0  0  0  0  0  0  0  0
  -10.3681    1.4306    0.0076 O   0  0  0  0  0  0  0  0  0  0  0  0
   -8.2296    2.6617   -2.4946 O   0  0  0  0  0  0  0  0  0  0  0  0
   -6.4080    0.8834   -3.5853 O   0  0  0  0  0  0  0  0  0  0  0  0
   -6.7885   -1.2939   -2.0544 O   0  0  0  0  0  0  0  0  0  0  0  0
   -3.0555    1.5279    1.9054 O   0  0  0  0  0  0  0  0  0  0  0  0
   -1.7994   -0.5912   -1.0620 C   0  0  0  0  0  0  0  0  0  0  0  0
   -0.4551    2.0622    1.9206 O   0  0  0  0  0  0  0  0  0  0  0  0
    0.1298    2.9055   -2.0827 O   0  0  0  0  0  0  0  0  0  0  0  0
   -1.6540    4.5692   -3.6052 C   0  0  0  0  0  0  0  0  0  0  0  0
   -2.6487    6.5575   -1.4873 O   0  0  0  0  0  0  0  0  0  0  0  0
   -1.9680    5.6366    0.9712 O   0  0  0  0  0  0  0  0  0  0  0  0
    0.8158    5.9589    1.6841 O   0  0  0  0  0  0  0  0  0  0  0  0
    1.8714    7.3596   -1.2370 O   0  0  0  0  0  0  0  0  0  0  0  0
    4.9575    4.7558    0.2010 O   0  0  0  0  0  0  0  0  0  0  0  0
    6.0357    1.3952    2.8339 C   0  0  2  0  0  0  0  0  0  0  0  0
    6.5232    2.6610    3.5795 C   0  0  0  0  0  0  0  0  0  0  0  0
    7.1301    0.7364    1.9309 C   0  0  1  0  0  0  0  0  0  0  0  0
    7.4833    1.4453    0.5932 C   0  0  0  0  0  0  0  0  0  0  0  0
    8.0379    2.8651    0.6759 C   0  0  0  0  0  0  0  0  0  0  0  0
    9.3516    2.9247    1.4801 C   0  0  0  0  0  0  0  0  0  0  0  0
    9.6755    4.3303    1.6245 N   0  0  0  0  0  0  0  0  0  0  0  0
   10.3006    4.6787    2.6884 C   0  0  0  0  0  0  0  0  0  0  0  0
   10.8979    3.9752    3.6726 N   0  0  0  0  0  0  0  0  0  0  0  0
   10.3382    5.9993    2.9384 N   0  0  0  0  0  0  0  0  0  0  0  0
    8.3097    0.4162    2.6680 O   0  0  0  0  0  0  0  0  0  0  0  0
    5.6274   -1.7041   -0.2759 C   0  0  0  0  0  0  0  0  0  0  0  0
    3.1320   -5.1693   -4.3764 H   0  0  0  0  0  0  0  0  0  0  0  0
    3.5792   -3.4835   -4.6281 H   0  0  0  0  0  0  0  0  0  0  0  0
    1.8757   -3.9286   -4.5668 H   0  0  0  0  0  0  0  0  0  0  0  0
    3.9331   -3.6336   -2.3947 H   0  0  0  0  0  0  0  0  0  0  0  0
    2.6111   -1.7701   -2.8463 H   0  0  0  0  0  0  0  0  0  0  0  0
    1.1166   -2.6371   -2.7223 H   0  0  0  0  0  0  0  0  0  0  0  0
    1.5239   -1.1403   -0.8911 H   0  0  0  0  0  0  0  0  0  0  0  0
    1.2461   -2.7705   -0.3280 H   0  0  0  0  0  0  0  0  0  0  0  0
    3.5005   -2.9890    0.4512 H   0  0  0  0  0  0  0  0  0  0  0  0
    5.0065    2.2166    1.1643 H   0  0  0  0  0  0  0  0  0  0  0  0
    2.6688    1.4665    2.7958 H   0  0  0  0  0  0  0  0  0  0  0  0
    3.7590    2.4426    3.7878 H   0  0  0  0  0  0  0  0  0  0  0  0
    2.8421    3.0826    0.9321 H   0  0  0  0  0  0  0  0  0  0  0  0
    3.9460    4.8040    3.2139 H   0  0  0  0  0  0  0  0  0  0  0  0
    4.9916    6.0626    1.7190 H   0  0  0  0  0  0  0  0  0  0  0  0
    2.8772    7.2262    1.1454 H   0  0  0  0  0  0  0  0  0  0  0  0
    4.1606    7.2761   -0.0023 H   0  0  0  0  0  0  0  0  0  0  0  0
    3.2008    5.8369   -1.5611 H   0  0  0  0  0  0  0  0  0  0  0  0
    1.0032    5.0106   -1.5489 H   0  0  0  0  0  0  0  0  0  0  0  0
    1.9793    4.1858   -0.4164 H   0  0  0  0  0  0  0  0  0  0  0  0
    0.1313    4.3447    0.8373 H   0  0  0  0  0  0  0  0  0  0  0  0
   -0.8170    7.0590    0.1607 H   0  0  0  0  0  0  0  0  0  0  0  0
   -0.7233    6.2653   -2.0732 H   0  0  0  0  0  0  0  0  0  0  0  0
   -2.9297    4.2799   -1.9172 H   0  0  0  0  0  0  0  0  0  0  0  0
   -1.7638    2.2752   -2.2877 H   0  0  0  0  0  0  0  0  0  0  0  0
   -1.8123    3.4552    0.3436 H   0  0  0  0  0  0  0  0  0  0  0  0
   -2.3086    1.9592   -0.2126 H   0  0  0  0  0  0  0  0  0  0  0  0
    0.6628    2.5297    0.3001 H   0  0  0  0  0  0  0  0  0  0  0  0
    0.9009    0.2318    0.8095 H   0  0  0  0  0  0  0  0  0  0  0  0
    0.4908    0.5540   -0.8719 H   0  0  0  0  0  0  0  0  0  0  0  0
   -0.4700   -1.4611    0.2579 H   0  0  0  0  0  0  0  0  0  0  0  0
   -1.7867   -1.5900    1.9037 H   0  0  0  0  0  0  0  0  0  0  0  0
   -1.0119   -0.1684    2.4011 H   0  0  0  0  0  0  0  0  0  0  0  0
   -3.3876   -0.1323    2.9601 H   0  0  0  0  0  0  0  0  0  0  0  0
   -3.8437   -0.1868    0.0004 H   0  0  0  0  0  0  0  0  0  0  0  0
   -3.3520   -2.3573    0.6548 H   0  0  0  0  0  0  0  0  0  0  0  0
   -6.3837   -1.8823    3.0959 H   0  0  0  0  0  0  0  0  0  0  0  0
   -7.1916   -4.5154    1.9318 H   0  0  0  0  0  0  0  0  0  0  0  0
   -6.7248   -2.8647   -0.3954 H   0  0  0  0  0  0  0  0  0  0  0  0
   -5.2972   -3.8630   -1.5460 H   0  0  0  0  0  0  0  0  0  0  0  0
   -4.2433   -5.7349   -1.5182 H   0  0  0  0  0  0  0  0  0  0  0  0
   -3.9174   -5.4606    1.4312 H   0  0  0  0  0  0  0  0  0  0  0  0
   -1.6402   -6.0585    1.1394 H   0  0  0  0  0  0  0  0  0  0  0  0
   -0.8926   -4.1292    0.4247 H   0  0  0  0  0  0  0  0  0  0  0  0
   -0.8963   -3.1254   -1.4871 H   0  0  0  0  0  0  0  0  0  0  0  0
   -2.4853   -3.6488   -1.9405 H   0  0  0  0  0  0  0  0  0  0  0  0
   -1.6717   -5.0731   -3.4550 H   0  0  0  0  0  0  0  0  0  0  0  0
   -0.3806   -3.9339   -3.4286 H   0  0  0  0  0  0  0  0  0  0  0  0
    0.6393   -5.8783   -3.7884 H   0  0  0  0  0  0  0  0  0  0  0  0
    1.8001   -7.0099   -2.2404 H   0  0  0  0  0  0  0  0  0  0  0  0
    3.4326   -5.8260   -2.1168 H   0  0  0  0  0  0  0  0  0  0  0  0
    2.2494   -4.5865    0.0588 H   0  0  0  0  0  0  0  0  0  0  0  0
    0.6511   -5.8009    0.2409 H   0  0  0  0  0  0  0  0  0  0  0  0
    0.1855   -7.3624   -0.4618 H   0  0  0  0  0  0  0  0  0  0  0  0
    1.8309   -7.0863    0.0623 H   0  0  0  0  0  0  0  0  0  0  0  0
   -1.3000   -7.0254   -2.1431 H   0  0  0  0  0  0  0  0  0  0  0  0
   -4.6899   -7.7751    1.3111 H   0  0  0  0  0  0  0  0  0  0  0  0
   -2.9818   -7.7265    1.6905 H   0  0  0  0  0  0  0  0  0  0  0  0
   -3.4861   -8.1350    0.0462 H   0  0  0  0  0  0  0  0  0  0  0  0
   -6.5993   -6.1704   -0.2512 H   0  0  0  0  0  0  0  0  0  0  0  0
   -8.9088   -3.0343    0.7901 H   0  0  0  0  0  0  0  0  0  0  0  0
   -8.7115   -2.5744    2.5631 H   0  0  0  0  0  0  0  0  0  0  0  0
   -8.1098   -1.6324    1.3526 H   0  0  0  0  0  0  0  0  0  0  0  0
   -5.5092   -3.2717    4.5942 H   0  0  0  0  0  0  0  0  0  0  0  0
   -2.5675   -3.5550    2.3618 H   0  0  0  0  0  0  0  0  0  0  0  0
   -3.0669   -2.8551    3.8940 H   0  0  0  0  0  0  0  0  0  0  0  0
   -3.7573   -4.3947    3.3381 H   0  0  0  0  0  0  0  0  0  0  0  0
   -6.3973   -1.1004    0.3461 H   0  0  0  0  0  0  0  0  0  0  0  0
   -5.0359   -0.4241   -1.6552 H   0  0  0  0  0  0  0  0  0  0  0  0
   -5.7883    1.8656   -1.9005 H   0  0  0  0  0  0  0  0  0  0  0  0
   -8.6290    0.6948   -2.0606 H   0  0  0  0  0  0  0  0  0  0  0  0
   -7.1321    2.3938    0.0410 H   0  0  0  0  0  0  0  0  0  0  0  0
   -9.1735    2.3883    1.3489 H   0  0  0  0  0  0  0  0  0  0  0  0
   -9.4206    3.2564   -0.1673 H   0  0  0  0  0  0  0  0  0  0  0  0
  -10.2933    0.6836    0.6261 H   0  0  0  0  0  0  0  0  0  0  0  0
   -8.0875    2.4142   -3.4304 H   0  0  0  0  0  0  0  0  0  0  0  0
   -5.5917    0.3816   -3.7567 H   0  0  0  0  0  0  0  0  0  0  0  0
   -7.6993   -1.3242   -1.7009 H   0  0  0  0  0  0  0  0  0  0  0  0
   -2.3440    1.7722    2.5256 H   0  0  0  0  0  0  0  0  0  0  0  0
   -2.3991    0.2888   -1.2802 H   0  0  0  0  0  0  0  0  0  0  0  0
   -1.1123   -0.7022   -1.9104 H   0  0  0  0  0  0  0  0  0  0  0  0
   -2.4597   -1.4578   -1.0955 H   0  0  0  0  0  0  0  0  0  0  0  0
   -0.6229    2.9971    2.1310 H   0  0  0  0  0  0  0  0  0  0  0  0
    0.1475    2.5829   -3.0022 H   0  0  0  0  0  0  0  0  0  0  0  0
   -2.0870    5.5074   -3.9664 H   0  0  0  0  0  0  0  0  0  0  0  0
   -0.5901    4.5772   -3.8745 H   0  0  0  0  0  0  0  0  0  0  0  0
   -2.1274    3.7491   -4.1548 H   0  0  0  0  0  0  0  0  0  0  0  0
   -3.1323    6.3497   -0.6593 H   0  0  0  0  0  0  0  0  0  0  0  0
   -1.5627    5.7297    1.8574 H   0  0  0  0  0  0  0  0  0  0  0  0
    0.9172    6.9069    1.4893 H   0  0  0  0  0  0  0  0  0  0  0  0
    2.4309    7.7323   -1.9416 H   0  0  0  0  0  0  0  0  0  0  0  0
    4.3908    4.0470   -0.1436 H   0  0  0  0  0  0  0  0  0  0  0  0
    5.8096    0.6725    3.6336 H   0  0  0  0  0  0  0  0  0  0  0  0
    5.7270    3.3782    3.7970 H   0  0  0  0  0  0  0  0  0  0  0  0
    7.0816    2.3791    4.4790 H   0  0  0  0  0  0  0  0  0  0  0  0
    7.2579    3.2643    3.0670 H   0  0  0  0  0  0  0  0  0  0  0  0
    6.7606   -0.2465    1.6398 H   0  0  0  0  0  0  0  0  0  0  0  0
    8.2127    0.8168    0.0603 H   0  0  0  0  0  0  0  0  0  0  0  0
    6.6053    1.4945   -0.0627 H   0  0  0  0  0  0  0  0  0  0  0  0
    8.2228    3.2574   -0.3327 H   0  0  0  0  0  0  0  0  0  0  0  0
    7.2522    3.5731    0.9889 H   0  0  0  0  0  0  0  0  0  0  0  0
    9.2628    2.5198    2.4910 H   0  0  0  0  0  0  0  0  0  0  0  0
   10.1337    2.3396    0.9755 H   0  0  0  0  0  0  0  0  0  0  0  0
   11.2795    3.0868    3.3622 H   0  0  0  0  0  0  0  0  0  0  0  0
   11.6084    4.5189    4.1536 H   0  0  0  0  0  0  0  0  0  0  0  0
    9.7577    6.1989    3.7458 H   0  0  0  0  0  0  0  0  0  0  0  0
    9.8761    6.4313    2.1432 H   0  0  0  0  0  0  0  0  0  0  0  0
    8.0398   -0.0687    3.4651 H   0  0  0  0  0  0  0  0  0  0  0  0
    6.3115   -0.9659   -0.7065 H   0  0  0  0  0  0  0  0  0  0  0  0
    5.9526   -1.9788    0.7290 H   0  0  0  0  0  0  0  0  0  0  0  0
    5.6936   -2.6019   -0.9019 H   0  0  0  0  0  0  0  0  0  0  0  0
  1  2  1  0  0  0  0
  1 87  1  0  0  0  0
  1 88  1  0  0  0  0
  1 89  1  0  0  0  0
  2  3  1  0  0  0  0
  2 44  1  0  0  0  0
  2 90  1  1  0  0  0
  3  4  1  0  0  0  0
  3 91  1  0  0  0  0
  3 92  1  0  0  0  0
  4  5  1  0  0  0  0
  4 93  1  0  0  0  0
  4 94  1  0  0  0  0
  5  6  2  3  0  0  0
  5 95  1  0  0  0  0
  6  7  1  0  0  0  0
  6 86  1  0  0  0  0
  7  8  2  0  0  0  0
  7  9  1  0  0  0  0
  9 10  1  0  0  0  0
 10 11  1  0  0  0  0
 10 75  1  0  0  0  0
 10 96  1  6  0  0  0
 11 12  1  0  0  0  0
 11 97  1  0  0  0  0
 11 98  1  0  0  0  0
 12 13  2  3  0  0  0
 12 99  1  0  0  0  0
 13 14  1  0  0  0  0
 13100  1  0  0  0  0
 14 15  1  0  0  0  0
 14 74  1  0  0  0  0
 14101  1  1  0  0  0
 15 16  1  0  0  0  0
 15102  1  0  0  0  0
 15103  1  0  0  0  0
 16 17  1  0  0  0  0
 16 73  1  0  0  0  0
 16104  1  6  0  0  0
 17 18  1  0  0  0  0
 17105  1  0  0  0  0
 17106  1  0  0  0  0
 18 19  1  0  0  0  0
 18 72  1  0  0  0  0
 18107  1  1  0  0  0
 19 20  1  0  0  0  0
 19 71  1  0  0  0  0
 19108  1  1  0  0  0
 20 21  1  0  0  0  0
 20 70  1  0  0  0  0
 20109  1  6  0  0  0
 21 22  1  0  0  0  0
 21 69  1  0  0  0  0
 21110  1  1  0  0  0
 22 23  1  0  0  0  0
 22 68  1  0  0  0  0
 22111  1  6  0  0  0
 23 24  1  0  0  0  0
 23112  1  0  0  0  0
 23113  1  0  0  0  0
 24 25  1  0  0  0  0
 24 67  1  0  0  0  0
 24114  1  6  0  0  0
 25 26  1  0  0  0  0
 25115  1  0  0  0  0
 25116  1  0  0  0  0
 26 27  1  0  0  0  0
 26 66  1  0  0  0  0
 26117  1  1  0  0  0
 27 28  1  0  0  0  0
 27118  1  0  0  0  0
 27119  1  0  0  0  0
 28 29  1  0  0  0  0
 28 65  1  0  0  0  0
 28120  1  1  0  0  0
 29 30  1  0  0  0  0
 29 53  1  0  0  0  0
 29121  1  6  0  0  0
 30 31  2  3  0  0  0
 30122  1  0  0  0  0
 31 32  1  0  0  0  0
 31 52  1  0  0  0  0
 32 33  1  0  0  0  0
 32 51  1  0  0  0  0
 32123  1  1  0  0  0
 33 34  1  0  0  0  0
 33 50  1  0  0  0  0
 33124  1  1  0  0  0
 34 35  2  3  0  0  0
 34125  1  0  0  0  0
 35 36  1  0  0  0  0
 35126  1  0  0  0  0
 36 37  1  0  0  0  0
 36 49  1  0  0  0  0
 36127  1  6  0  0  0
 37 38  1  0  0  0  0
 37 48  1  0  0  0  0
 37128  1  1  0  0  0
 38 39  2  3  0  0  0
 38129  1  0  0  0  0
 39 40  1  0  0  0  0
 39130  1  0  0  0  0
 40 41  1  0  0  0  0
 40131  1  0  0  0  0
 40132  1  0  0  0  0
 41 42  1  0  0  0  0
 41133  1  0  0  0  0
 41134  1  0  0  0  0
 42 43  1  0  0  0  0
 42 47  1  0  0  0  0
 42135  1  6  0  0  0
 43 44  1  0  0  0  0
 43 46  1  0  0  0  0
 43136  1  6  0  0  0
 44 45  1  0  0  0  0
 44137  1  6  0  0  0
 45138  1  0  0  0  0
 46139  1  0  0  0  0
 46140  1  0  0  0  0
 46141  1  0  0  0  0
 47142  1  0  0  0  0
 48143  1  0  0  0  0
 48144  1  0  0  0  0
 48145  1  0  0  0  0
 49146  1  0  0  0  0
 50147  1  0  0  0  0
 50148  1  0  0  0  0
 50149  1  0  0  0  0
 51150  1  0  0  0  0
 52151  1  0  0  0  0
 52152  1  0  0  0  0
 52153  1  0  0  0  0
 53 54  1  0  0  0  0
 54 55  1  0  0  0  0
 54 59  1  0  0  0  0
 54154  1  1  0  0  0
 55 56  1  0  0  0  0
 55 64  1  0  0  0  0
 55155  1  6  0  0  0
 56 57  1  0  0  0  0
 56 63  1  0  0  0  0
 56156  1  1  0  0  0
 57 58  1  0  0  0  0
 57 62  1  0  0  0  0
 57157  1  6  0  0  0
 58 59  1  0  0  0  0
 58 60  1  0  0  0  0
 58158  1  1  0  0  0
 60 61  1  0  0  0  0
 60159  1  0  0  0  0
 60160  1  0  0  0  0
 61161  1  0  0  0  0
 62162  1  0  0  0  0
 63163  1  0  0  0  0
 64164  1  0  0  0  0
 65165  1  0  0  0  0
 66166  1  0  0  0  0
 66167  1  0  0  0  0
 66168  1  0  0  0  0
 67169  1  0  0  0  0
 68170  1  0  0  0  0
 69171  1  0  0  0  0
 69172  1  0  0  0  0
 69173  1  0  0  0  0
 70174  1  0  0  0  0
 71175  1  0  0  0  0
 72176  1  0  0  0  0
 73177  1  0  0  0  0
 74178  1  0  0  0  0
 75 76  1  0  0  0  0
 75 77  1  0  0  0  0
 75179  1  1  0  0  0
 76180  1  0  0  0  0
 76181  1  0  0  0  0
 76182  1  0  0  0  0
 77 78  1  0  0  0  0
 77 85  1  0  0  0  0
 77183  1  6  0  0  0
 78 79  1  0  0  0  0
 78184  1  0  0  0  0
 78185  1  0  0  0  0
 79 80  1  0  0  0  0
 79186  1  0  0  0  0
 79187  1  0  0  0  0
 80 81  1  0  0  0  0
 80188  1  0  0  0  0
 80189  1  0  0  0  0
 81 82  2  0  0  0  0
 82 83  1  0  0  0  0
 82 84  1  0  0  0  0
 83190  1  0  0  0  0
 83191  1  0  0  0  0
 84192  1  0  0  0  0
 84193  1  0  0  0  0
 85194  1  0  0  0  0
 86195  1  0  0  0  0
 86196  1  0  0  0  0
 86197  1  0  0  0  0
M  END
