
 OpenBabel10072619573D

 39 40  0  0  0  0  0  0  0  0999 V2000
    1.6460   -1.1155    0.6808 C   0  0  0  0  0  0  0  0  0  0  0  0
    2.6599   -0.2971    0.1119 O   0  0  0  0  0  0  0  0  0  0  0  0
    3.2003    0.6670    0.9164 C   0  0  0  0  0  0  0  0  0  0  0  0
    2.9154    0.8647    2.2676 C   0  0  0  0  0  0  0  0  0  0  0  0
    3.5462    1.8934    2.9829 C   0  0  0  0  0  0  0  0  0  0  0  0
    4.4612    2.7334    2.3495 C   0  0  0  0  0  0  0  0  0  0  0  0
    4.7452    2.5313    0.9986 C   0  0  0  0  0  0  0  0  0  0  0  0
    4.1223    1.5034    0.2876 C   0  0  0  0  0  0  0  0  0  0  0  0
    5.1359    3.7743    2.9220 O   0  0  0  0  0  0  0  0  0  0  0  0
    4.8966    4.0336    4.3038 C   0  0  0  0  0  0  0  0  0  0  0  0
    5.7366    5.2414    4.7192 C   0  0  0  0  0  0  0  0  0  0  0  0
    5.5373    5.6071    6.1135 N   0  0  0  0  0  0  0  0  0  0  0  0
    6.3568    6.5692    6.6796 C   0  0  0  0  0  0  0  0  0  0  0  0
    7.2797    7.0928    6.0717 O   0  0  0  0  0  0  0  0  0  0  0  0
    5.9773    6.8116    7.9823 N   0  0  0  0  0  0  0  0  0  0  0  0
    6.4673    7.8111    8.8458 C   0  0  0  0  0  0  0  0  0  0  0  0
    7.2974    8.8563    8.4320 C   0  0  0  0  0  0  0  0  0  0  0  0
    7.7358    9.8208    9.3466 C   0  0  0  0  0  0  0  0  0  0  0  0
    7.3369    9.7458   10.6782 C   0  0  0  0  0  0  0  0  0  0  0  0
    6.5011    8.7174   11.1040 C   0  0  0  0  0  0  0  0  0  0  0  0
    6.0679    7.7536   10.1882 C   0  0  0  0  0  0  0  0  0  0  0  0
    7.9310   11.0474   11.9122 Br  0  0  0  0  0  0  0  0  0  0  0  0
    1.3003   -1.8088   -0.0924 H   0  0  0  0  0  0  0  0  0  0  0  0
    0.7876   -0.5141    0.9982 H   0  0  0  0  0  0  0  0  0  0  0  0
    2.0393   -1.7123    1.5103 H   0  0  0  0  0  0  0  0  0  0  0  0
    2.2102    0.2340    2.7985 H   0  0  0  0  0  0  0  0  0  0  0  0
    3.2960    2.0082    4.0317 H   0  0  0  0  0  0  0  0  0  0  0  0
    5.4588    3.1768    0.4932 H   0  0  0  0  0  0  0  0  0  0  0  0
    4.3569    1.3570   -0.7637 H   0  0  0  0  0  0  0  0  0  0  0  0
    5.1841    3.1650    4.9087 H   0  0  0  0  0  0  0  0  0  0  0  0
    3.8353    4.2593    4.4675 H   0  0  0  0  0  0  0  0  0  0  0  0
    5.4849    6.1112    4.1000 H   0  0  0  0  0  0  0  0  0  0  0  0
    6.8007    5.0348    4.5497 H   0  0  0  0  0  0  0  0  0  0  0  0
    4.5772    5.6843    6.4149 H   0  0  0  0  0  0  0  0  0  0  0  0
    5.4086    6.0896    8.3992 H   0  0  0  0  0  0  0  0  0  0  0  0
    7.6187    8.9527    7.3989 H   0  0  0  0  0  0  0  0  0  0  0  0
    8.3806   10.6260    9.0032 H   0  0  0  0  0  0  0  0  0  0  0  0
    6.1826    8.6545   12.1414 H   0  0  0  0  0  0  0  0  0  0  0  0
    5.4172    6.9580   10.5409 H   0  0  0  0  0  0  0  0  0  0  0  0
  1  2  1  0  0  0  0
  1 23  1  0  0  0  0
  1 24  1  0  0  0  0
  1 25  1  0  0  0  0
  2  3  1  0  0  0  0
  3  4  2  0  0  0  0
  3  8  1  0  0  0  0
  4  5  1  0  0  0  0
  4 26  1  0  0  0  0
  5  6  2  0  0  0  0
  5 27  1  0  0  0  0
  6  7  1  0  0  0  0
  6  9  1  0  0  0  0
  7  8  2  0  0  0  0
  7 28  1  0  0  0  0
  8 29  1  0  0  0  0
  9 10  1  0  0  0  0
 10 11  1  0  0  0  0
 10 30  1  0  0  0  0
 10 31  1  0  0  0  0
 11 12  1  0  0  0  0
 11 32  1  0  0  0  0
 11 33  1  0  0  0  0
 12 13  1  0  0  0  0
 12 34  1  0  0  0  0
 13 14  2  0  0  0  0
 13 15  1  0  0  0  0
 15 16  1  0  0  0  0
 15 35  1  0  0  0  0
 16 17  2  0  0  0  0
 16 21  1  0  0  0  0
 17 18  1  0  0  0  0
 17 36  1  0  0  0  0
 18 19  2  0  0  0  0
 18 37  1  0  0  0  0
 19 20  1  0  0  0  0
 19 22  1  0  0  0  0
 20 21  2  0  0  0  0
 20 38  1  0  0  0  0
 21 39  1  0  0  0  0
M  END
