
 OpenBabel10072619553D

 29 29  0  0  0  0  0  0  0  0999 V2000
   -5.7908    1.9223   -0.0070 C   0  0  0  0  0  0  0  0  0  0  0  0
   -5.0430    0.6548   -0.0529 C   0  0  0  0  0  0  0  0  0  0  0  0
   -3.7167    0.3267   -0.1776 C   0  0  0  0  0  0  0  0  0  0  0  0
   -3.6951   -1.0864   -0.1462 C   0  0  0  0  0  0  0  0  0  0  0  0
   -4.9323   -1.5776   -0.0031 N   0  0  0  0  0  0  0  0  0  0  0  0
   -5.7751   -0.4846    0.0532 O   0  0  0  0  0  0  0  0  0  0  0  0
   -2.5496   -1.8446   -0.2440 N   0  0  0  0  0  0  0  0  0  0  0  0
   -2.4190   -3.1970   -0.2293 C   0  0  0  0  0  0  0  0  0  0  0  0
   -1.3010   -3.6929   -0.3233 O   0  0  0  0  0  0  0  0  0  0  0  0
   -3.5492   -3.9393   -0.1293 N   0  0  0  0  0  0  0  0  0  0  0  0
   -3.5833   -5.4303    0.0736 C   0  0  0  0  0  0  0  0  0  0  0  0
   -2.9072   -6.1467   -1.1077 C   0  0  0  0  0  0  0  0  0  0  0  0
   -2.9542   -5.8805    1.3943 C   0  0  0  0  0  0  0  0  0  0  0  0
   -3.5179   -5.2566    2.4551 F   0  0  0  0  0  0  0  0  0  0  0  0
   -3.0892   -7.2118    1.5941 F   0  0  0  0  0  0  0  0  0  0  0  0
   -1.6284   -5.6248    1.4566 F   0  0  0  0  0  0  0  0  0  0  0  0
   -5.0320   -5.9162    0.1617 C   0  0  0  0  0  0  0  0  0  0  0  0
   -5.6952   -5.3544    1.1966 F   0  0  0  0  0  0  0  0  0  0  0  0
   -5.7165   -5.5756   -0.9611 F   0  0  0  0  0  0  0  0  0  0  0  0
   -5.1389   -7.2559    0.2829 F   0  0  0  0  0  0  0  0  0  0  0  0
   -5.1124    2.7793   -0.0559 H   0  0  0  0  0  0  0  0  0  0  0  0
   -6.3637    1.9972    0.9218 H   0  0  0  0  0  0  0  0  0  0  0  0
   -6.4860    1.9892   -0.8488 H   0  0  0  0  0  0  0  0  0  0  0  0
   -2.8873    1.0105   -0.2795 H   0  0  0  0  0  0  0  0  0  0  0  0
   -1.6724   -1.3521   -0.3324 H   0  0  0  0  0  0  0  0  0  0  0  0
   -4.3952   -3.4146    0.0944 H   0  0  0  0  0  0  0  0  0  0  0  0
   -1.8299   -5.9584   -1.1413 H   0  0  0  0  0  0  0  0  0  0  0  0
   -3.3321   -5.8172   -2.0627 H   0  0  0  0  0  0  0  0  0  0  0  0
   -3.0372   -7.2328   -1.0411 H   0  0  0  0  0  0  0  0  0  0  0  0
  1  2  1  0  0  0  0
  1 21  1  0  0  0  0
  1 22  1  0  0  0  0
  1 23  1  0  0  0  0
  2  3  2  0  0  0  0
  2  6  1  0  0  0  0
  3  4  1  0  0  0  0
  3 24  1  0  0  0  0
  4  5  2  0  0  0  0
  4  7  1  0  0  0  0
  5  6  1  0  0  0  0
  7  8  1  0  0  0  0
  7 25  1  0  0  0  0
  8  9  2  0  0  0  0
  8 10  1  0  0  0  0
 10 11  1  0  0  0  0
 10 26  1  0  0  0  0
 11 12  1  0  0  0  0
 11 13  1  0  0  0  0
 11 17  1  0  0  0  0
 12 27  1  0  0  0  0
 12 28  1  0  0  0  0
 12 29  1  0  0  0  0
 13 14  1  0  0  0  0
 13 15  1  0  0  0  0
 13 16  1  0  0  0  0
 17 18  1  0  0  0  0
 17 19  1  0  0  0  0
 17 20  1  0  0  0  0
M  END
