
 OpenBabel10072619243D

198204  0  0  1  0  0  0  0  0999 V2000
    1.0697   -1.1415   -0.2533 C   0  0  0  0  0  0  0  0  0  0  0  0
   -0.0351   -0.1476    0.2266 C   0  0  3  0  0  0  0  0  0  0  0  0
    0.2219    1.1869   -0.4303 C   0  0  3  0  0  0  0  0  0  0  0  0
    1.4242    1.8338    0.3489 C   0  0  3  0  0  0  0  0  0  0  0  0
    1.0696    2.3022    1.9398 C   0  0  3  0  0  0  0  0  0  0  0  0
    0.4450    0.8940    2.5308 C   0  0  3  0  0  0  0  0  0  0  0  0
   -0.2633    0.0229    1.6191 O   0  0  0  0  0  0  0  0  0  0  0  0
   -0.5182    1.0571    3.5781 O   0  0  0  0  0  0  0  0  0  0  0  0
   -0.4270    1.0600    5.0176 C   0  0  3  0  0  0  0  0  0  0  0  0
   -0.2056    2.4811    5.4638 C   0  0  3  0  0  0  0  0  0  0  0  0
    1.1005    2.8757    5.0372 O   0  0  0  0  0  0  0  0  0  0  0  0
    2.2627    2.2057    5.4756 C   0  0  3  0  0  0  0  0  0  0  0  0
    2.0046    0.6524    5.4830 C   0  0  3  0  0  0  0  0  0  0  0  0
    0.5666    0.1286    5.7536 C   0  0  3  0  0  0  0  0  0  0  0  0
    0.3826   -1.2297    5.3118 O   0  0  0  0  0  0  0  0  0  0  0  0
   -1.1318   -1.8616    5.3080 S   0  0  0  0  0  0  0  0  0  0  0  0
   -1.8003   -1.4573    6.5267 O   0  0  0  0  0  0  0  0  0  0  0  0
   -1.7356   -1.6664    4.0167 O   0  0  0  0  0  0  0  0  0  0  0  0
   -0.8851   -3.4390    5.5109 O   0  0  0  0  0  0  0  0  0  0  0  0
    3.1061   -0.2119    5.7347 O   0  0  0  0  0  0  0  0  0  0  0  0
    4.1446   -0.4433    4.4685 S   0  0  0  0  0  0  0  0  0  0  0  0
    3.4014   -0.4276    3.2211 O   0  0  0  0  0  0  0  0  0  0  0  0
    5.2742    0.4384    4.5945 O   0  0  0  0  0  0  0  0  0  0  0  0
    4.6358   -1.9642    4.6004 O   0  0  0  0  0  0  0  0  0  0  0  0
    2.9598    3.0523    6.4442 O   0  0  0  0  0  0  0  0  0  0  0  0
    3.3377    4.3334    5.7885 C   0  0  3  0  0  0  0  0  0  0  0  0
    2.3484    5.5178    5.9484 C   0  0  3  0  0  0  0  0  0  0  0  0
    2.3541    6.2231    4.6863 O   0  0  0  0  0  0  0  0  0  0  0  0
    3.5578    6.8693    4.2943 C   0  0  3  0  0  0  0  0  0  0  0  0
    4.8873    5.9890    4.7372 C   0  0  3  0  0  0  0  0  0  0  0  0
    4.7394    4.9572    5.9554 C   0  0  3  0  0  0  0  0  0  0  0  0
    5.7724    3.9563    5.9366 O   0  0  0  0  0  0  0  0  0  0  0  0
    5.9673    3.0195    7.2726 S   0  0  0  0  0  0  0  0  0  0  0  0
    5.5119    3.7587    8.4294 O   0  0  0  0  0  0  0  0  0  0  0  0
    5.4885    1.6880    7.0010 O   0  0  0  0  0  0  0  0  0  0  0  0
    7.5731    2.9554    7.4180 O   0  0  0  0  0  0  0  0  0  0  0  0
    6.0757    6.7617    4.9117 O   0  0  0  0  0  0  0  0  0  0  0  0
    6.9593    7.1168    3.5929 S   0  0  0  0  0  0  0  0  0  0  0  0
    7.2276    5.8941    2.8690 O   0  0  0  0  0  0  0  0  0  0  0  0
    6.3787    8.2671    2.9448 O   0  0  0  0  0  0  0  0  0  0  0  0
    8.3865    7.5538    4.1939 O   0  0  0  0  0  0  0  0  0  0  0  0
    3.4884    8.2412    4.6912 O   0  0  0  0  0  0  0  0  0  0  0  0
    2.5463    9.2620    4.1686 C   0  0  3  0  0  0  0  0  0  0  0  0
    1.0284    9.0491    3.8182 C   0  0  3  0  0  0  0  0  0  0  0  0
    0.7123    8.6478    2.4557 O   0  0  0  0  0  0  0  0  0  0  0  0
    1.2972    9.3300    1.3321 C   0  0  3  0  0  0  0  0  0  0  0  0
    2.8272    9.6006    1.6713 C   0  0  3  0  0  0  0  0  0  0  0  0
    3.1205   10.1957    3.0700 C   0  0  3  0  0  0  0  0  0  0  0  0
    4.5117   10.4809    3.3114 O   0  0  0  0  0  0  0  0  0  0  0  0
    4.8851   11.3018    4.6813 S   0  0  0  0  0  0  0  0  0  0  0  0
    3.9496   12.3996    4.7998 O   0  0  0  0  0  0  0  0  0  0  0  0
    5.0671   10.3611    5.7614 O   0  0  0  0  0  0  0  0  0  0  0  0
    6.3291   11.9368    4.3562 O   0  0  0  0  0  0  0  0  0  0  0  0
    3.5085   10.3327    0.6622 O   0  0  0  0  0  0  0  0  0  0  0  0
    4.1991    9.4724   -0.5310 S   0  0  0  0  0  0  0  0  0  0  0  0
    4.8071    8.2800    0.0171 O   0  0  0  0  0  0  0  0  0  0  0  0
    3.2659    9.3731   -1.6304 O   0  0  0  0  0  0  0  0  0  0  0  0
    5.4173   10.4019   -1.0194 O   0  0  0  0  0  0  0  0  0  0  0  0
    0.4902   10.3957    0.7606 O   0  0  0  0  0  0  0  0  0  0  0  0
   -0.7691   10.1361   -0.0224 C   0  0  3  0  0  0  0  0  0  0  0  0
   -1.7582    9.0816    0.5712 C   0  0  3  0  0  0  0  0  0  0  0  0
   -1.2934    7.7305    0.3104 O   0  0  0  0  0  0  0  0  0  0  0  0
   -1.3840    7.3407   -1.0715 C   0  0  3  0  0  0  0  0  0  0  0  0
   -0.6324    8.4057   -1.9879 C   0  0  3  0  0  0  0  0  0  0  0  0
   -0.6965    9.9012   -1.5869 C   0  0  3  0  0  0  0  0  0  0  0  0
    0.4293   10.5455   -2.2045 O   0  0  0  0  0  0  0  0  0  0  0  0
    0.3546   12.0747   -2.7359 S   0  0  0  0  0  0  0  0  0  0  0  0
   -1.0281   12.4097   -2.9964 O   0  0  0  0  0  0  0  0  0  0  0  0
    1.1876   12.8822   -1.8787 O   0  0  0  0  0  0  0  0  0  0  0  0
    1.0934   11.9744   -4.1685 O   0  0  0  0  0  0  0  0  0  0  0  0
   -0.4343    8.2332   -3.3873 O   0  0  0  0  0  0  0  0  0  0  0  0
   -1.3370    7.4977   -4.4931 S   0  0  0  0  0  0  0  0  0  0  0  0
   -2.5105    6.8893   -3.9084 O   0  0  0  0  0  0  0  0  0  0  0  0
   -1.4426    8.3816   -5.6235 O   0  0  0  0  0  0  0  0  0  0  0  0
   -0.3839    6.2745   -4.9382 O   0  0  0  0  0  0  0  0  0  0  0  0
   -2.6936    6.7902   -1.3199 O   0  0  0  0  0  0  0  0  0  0  0  0
   -2.9726    5.3429   -1.1319 C   0  0  3  0  0  0  0  0  0  0  0  0
   -3.0600    4.7127    0.3286 C   0  0  3  0  0  0  0  0  0  0  0  0
   -2.7057    3.2768    0.2911 O   0  0  0  0  0  0  0  0  0  0  0  0
   -1.2881    3.0207   -0.0034 C   0  0  3  0  0  0  0  0  0  0  0  0
   -1.0060    1.8617   -0.7521 O   0  0  0  0  0  0  0  0  0  0  0  0
   -0.7267    4.2423   -0.7790 C   0  0  3  0  0  0  0  0  0  0  0  0
   -1.9185    4.4136   -1.7966 C   0  0  3  0  0  0  0  0  0  0  0  0
   -1.8031    4.3718   -3.2046 O   0  0  0  0  0  0  0  0  0  0  0  0
   -2.8727    3.3505   -3.9896 S   0  0  0  0  0  0  0  0  0  0  0  0
   -2.1348    2.6394   -5.0036 O   0  0  0  0  0  0  0  0  0  0  0  0
   -3.7294    2.6621   -3.0545 O   0  0  0  0  0  0  0  0  0  0  0  0
   -3.8185    4.4209   -4.7319 O   0  0  0  0  0  0  0  0  0  0  0  0
    0.5831    4.3443   -1.3087 O   0  0  0  0  0  0  0  0  0  0  0  0
    1.6841    5.3688   -0.6037 S   0  0  0  0  0  0  0  0  0  0  0  0
    1.1510    6.6944   -0.5341 O   0  0  0  0  0  0  0  0  0  0  0  0
    2.2957    4.7508    0.5445 O   0  0  0  0  0  0  0  0  0  0  0  0
    2.8758    5.4313   -1.6641 O   0  0  0  0  0  0  0  0  0  0  0  0
   -4.2286    4.8753    1.3058 C   0  0  0  0  0  0  0  0  0  0  0  0
   -5.3448    4.0574    0.9774 O   0  0  0  0  0  0  0  0  0  0  0  0
   -6.2776    3.6008    2.2383 S   0  0  0  0  0  0  0  0  0  0  0  0
   -5.7602    2.3893    2.8254 O   0  0  0  0  0  0  0  0  0  0  0  0
   -6.5602    4.7687    3.0427 O   0  0  0  0  0  0  0  0  0  0  0  0
   -7.6777    3.1439    1.5755 O   0  0  0  0  0  0  0  0  0  0  0  0
   -3.2205    9.1616    0.0614 C   0  0  0  0  0  0  0  0  0  0  0  0
   -3.9761   10.2531    0.5341 O   0  0  0  0  0  0  0  0  0  0  0  0
   -5.5924   10.0782    0.3944 S   0  0  0  0  0  0  0  0  0  0  0  0
   -5.8708    9.6806   -0.9686 O   0  0  0  0  0  0  0  0  0  0  0  0
   -6.0695    9.3126    1.5214 O   0  0  0  0  0  0  0  0  0  0  0  0
   -6.1097   11.5925    0.5351 O   0  0  0  0  0  0  0  0  0  0  0  0
    0.2197   10.3548    4.1227 C   0  0  0  0  0  0  0  0  0  0  0  0
   -1.1624   10.0264    4.1496 O   0  0  0  0  0  0  0  0  0  0  0  0
   -2.2575   11.1580    3.7675 S   0  0  0  0  0  0  0  0  0  0  0  0
   -2.5175   11.9611    4.9365 O   0  0  0  0  0  0  0  0  0  0  0  0
   -1.9222   11.7352    2.4873 O   0  0  0  0  0  0  0  0  0  0  0  0
   -3.5649   10.2451    3.5580 O   0  0  0  0  0  0  0  0  0  0  0  0
    2.4892    6.4843    7.1511 C   0  0  0  0  0  0  0  0  0  0  0  0
    1.6842    6.0093    8.2225 O   0  0  0  0  0  0  0  0  0  0  0  0
    0.2840    6.7721    8.5488 S   0  0  0  0  0  0  0  0  0  0  0  0
   -0.6628    5.7731    9.0038 O   0  0  0  0  0  0  0  0  0  0  0  0
    0.5760    7.9466    9.3323 O   0  0  0  0  0  0  0  0  0  0  0  0
   -0.2390    7.2631    7.1024 O   0  0  0  0  0  0  0  0  0  0  0  0
   -0.5874    2.8212    6.9142 C   0  0  0  0  0  0  0  0  0  0  0  0
   -2.0055    2.8860    7.0862 O   0  0  0  0  0  0  0  0  0  0  0  0
   -2.8364    4.2076    6.6078 S   0  0  0  0  0  0  0  0  0  0  0  0
   -1.9735    5.3740    6.6690 O   0  0  0  0  0  0  0  0  0  0  0  0
   -3.5502    3.8996    5.3951 O   0  0  0  0  0  0  0  0  0  0  0  0
   -3.9106    4.3917    7.7941 O   0  0  0  0  0  0  0  0  0  0  0  0
    0.1022    3.3606    2.2022 O   0  0  0  0  0  0  0  0  0  0  0  0
    0.0496    4.8338    2.9006 S   0  0  0  0  0  0  0  0  0  0  0  0
    0.0964    4.8738    4.3281 O   0  0  0  0  0  0  0  0  0  0  0  0
    0.7384    5.8143    2.1106 O   0  0  0  0  0  0  0  0  0  0  0  0
   -1.4872    5.2125    2.6812 O   0  0  0  0  0  0  0  0  0  0  0  0
    2.2230    2.6183   -0.5612 O   0  0  0  0  0  0  0  0  0  0  0  0
    2.6852    2.0838   -2.0660 S   0  0  0  0  0  0  0  0  0  0  0  0
    3.9566    2.6851   -2.3825 O   0  0  0  0  0  0  0  0  0  0  0  0
    2.5051    0.6585   -2.1634 O   0  0  0  0  0  0  0  0  0  0  0  0
    1.6197    2.7829   -3.0563 O   0  0  0  0  0  0  0  0  0  0  0  0
    0.5959   -2.4707   -0.2774 O   0  0  0  0  0  0  0  0  0  0  0  0
    1.6139   -3.6317    0.1855 S   0  0  0  0  0  0  0  0  0  0  0  0
    2.7442   -3.6526   -0.7151 O   0  0  0  0  0  0  0  0  0  0  0  0
    1.7850   -3.5108    1.6134 O   0  0  0  0  0  0  0  0  0  0  0  0
    0.7269   -4.9321   -0.1416 O   0  0  0  0  0  0  0  0  0  0  0  0
    2.0191   -1.0462    0.2876 H   0  0  0  0  0  0  0  0  0  0  0  0
    1.2789   -0.9628   -1.3106 H   0  0  0  0  0  0  0  0  0  0  0  0
   -0.9799   -0.5528   -0.1518 H   0  0  0  0  0  0  0  0  0  0  0  0
    0.5111    0.9394   -1.4425 H   0  0  0  0  0  0  0  0  0  0  0  0
    2.1589    1.0485    0.5742 H   0  0  0  0  0  0  0  0  0  0  0  0
    1.9856    2.5841    2.4707 H   0  0  0  0  0  0  0  0  0  0  0  0
    1.2690    0.2573    2.8058 H   0  0  0  0  0  0  0  0  0  0  0  0
   -1.4447    0.8027    5.3329 H   0  0  0  0  0  0  0  0  0  0  0  0
   -0.9215    3.0328    4.8501 H   0  0  0  0  0  0  0  0  0  0  0  0
    2.9552    2.2431    4.6253 H   0  0  0  0  0  0  0  0  0  0  0  0
    1.9084    0.5316    4.4266 H   0  0  0  0  0  0  0  0  0  0  0  0
    0.3918    0.1362    6.8369 H   0  0  0  0  0  0  0  0  0  0  0  0
   -1.3913   -3.6817    6.3055 H   0  0  0  0  0  0  0  0  0  0  0  0
    4.4141   -2.3968    3.7449 H   0  0  0  0  0  0  0  0  0  0  0  0
    3.3506    4.0816    4.7208 H   0  0  0  0  0  0  0  0  0  0  0  0
    1.3606    5.0865    6.0745 H   0  0  0  0  0  0  0  0  0  0  0  0
    3.5875    6.8796    3.1992 H   0  0  0  0  0  0  0  0  0  0  0  0
    5.0583    5.3115    3.8867 H   0  0  0  0  0  0  0  0  0  0  0  0
    4.9031    5.5079    6.8816 H   0  0  0  0  0  0  0  0  0  0  0  0
    7.8820    3.7969    7.7985 H   0  0  0  0  0  0  0  0  0  0  0  0
    9.0597    6.9495    3.8144 H   0  0  0  0  0  0  0  0  0  0  0  0
    2.5067    9.8823    5.0730 H   0  0  0  0  0  0  0  0  0  0  0  0
    0.6293    8.2516    4.4514 H   0  0  0  0  0  0  0  0  0  0  0  0
    1.3473    8.6313    0.5102 H   0  0  0  0  0  0  0  0  0  0  0  0
    3.2631    8.5982    1.7342 H   0  0  0  0  0  0  0  0  0  0  0  0
    2.6082   11.1648    3.0918 H   0  0  0  0  0  0  0  0  0  0  0  0
    6.5617   11.7707    3.4250 H   0  0  0  0  0  0  0  0  0  0  0  0
    6.0019    9.8575   -1.5843 H   0  0  0  0  0  0  0  0  0  0  0  0
   -1.2566   11.1198    0.0490 H   0  0  0  0  0  0  0  0  0  0  0  0
   -1.7623    9.2030    1.6541 H   0  0  0  0  0  0  0  0  0  0  0  0
   -0.7590    6.4955   -1.2352 H   0  0  0  0  0  0  0  0  0  0  0  0
    0.4079    8.2666   -1.6972 H   0  0  0  0  0  0  0  0  0  0  0  0
   -1.6144   10.2807   -2.0551 H   0  0  0  0  0  0  0  0  0  0  0  0
    1.3146   11.0450   -4.3705 H   0  0  0  0  0  0  0  0  0  0  0  0
   -0.9398    5.5369   -5.2637 H   0  0  0  0  0  0  0  0  0  0  0  0
   -3.9348    5.1915   -1.6286 H   0  0  0  0  0  0  0  0  0  0  0  0
   -2.2878    5.2463    0.8474 H   0  0  0  0  0  0  0  0  0  0  0  0
   -1.0062    2.7110    0.9519 H   0  0  0  0  0  0  0  0  0  0  0  0
   -0.7334    5.0105   -0.0166 H   0  0  0  0  0  0  0  0  0  0  0  0
   -2.3964    3.4561   -1.6994 H   0  0  0  0  0  0  0  0  0  0  0  0
   -4.0176    5.1482   -4.1144 H   0  0  0  0  0  0  0  0  0  0  0  0
    3.6483    5.0929   -1.1550 H   0  0  0  0  0  0  0  0  0  0  0  0
   -4.5313    5.9247    1.3959 H   0  0  0  0  0  0  0  0  0  0  0  0
   -3.8561    4.5553    2.2979 H   0  0  0  0  0  0  0  0  0  0  0  0
   -8.1220    2.6142    2.2612 H   0  0  0  0  0  0  0  0  0  0  0  0
   -3.7213    8.2329    0.3652 H   0  0  0  0  0  0  0  0  0  0  0  0
   -3.2554    9.1936   -1.0335 H   0  0  0  0  0  0  0  0  0  0  0  0
   -5.7514   12.1033   -0.2165 H   0  0  0  0  0  0  0  0  0  0  0  0
    0.4095   11.1218    3.3637 H   0  0  0  0  0  0  0  0  0  0  0  0
    0.4848   10.7739    5.1004 H   0  0  0  0  0  0  0  0  0  0  0  0
   -3.9748   10.1028    4.4348 H   0  0  0  0  0  0  0  0  0  0  0  0
    2.2061    7.5063    6.8743 H   0  0  0  0  0  0  0  0  0  0  0  0
    3.5022    6.5799    7.5399 H   0  0  0  0  0  0  0  0  0  0  0  0
   -0.9225    6.6104    6.7989 H   0  0  0  0  0  0  0  0  0  0  0  0
   -0.1329    3.7562    7.2450 H   0  0  0  0  0  0  0  0  0  0  0  0
   -0.2285    2.0558    7.6073 H   0  0  0  0  0  0  0  0  0  0  0  0
   -3.4575    4.7310    8.5931 H   0  0  0  0  0  0  0  0  0  0  0  0
   -1.5522    6.1937    2.7060 H   0  0  0  0  0  0  0  0  0  0  0  0
    1.9419    3.6757   -3.3076 H   0  0  0  0  0  0  0  0  0  0  0  0
    0.2153   -4.7430   -0.9548 H   0  0  0  0  0  0  0  0  0  0  0  0
  1  2  1  0  0  0  0
  1134  1  0  0  0  0
  1139  1  0  0  0  0
  1140  1  0  0  0  0
  2  3  1  0  0  0  0
  2  7  1  0  0  0  0
  2141  1  0  0  0  0
  3  4  1  0  0  0  0
  3 81  1  0  0  0  0
  3142  1  0  0  0  0
  4  5  1  0  0  0  0
  4129  1  0  0  0  0
  4143  1  0  0  0  0
  5  6  1  0  0  0  0
  5124  1  0  0  0  0
  5144  1  0  0  0  0
  6  7  1  0  0  0  0
  6  8  1  0  0  0  0
  6145  1  0  0  0  0
  8  9  1  0  0  0  0
  9 10  1  0  0  0  0
  9 14  1  0  0  0  0
  9146  1  0  0  0  0
 10 11  1  0  0  0  0
 10118  1  0  0  0  0
 10147  1  0  0  0  0
 11 12  1  0  0  0  0
 12 13  1  0  0  0  0
 12 25  1  0  0  0  0
 12148  1  0  0  0  0
 13 14  1  0  0  0  0
 13 20  1  0  0  0  0
 13149  1  0  0  0  0
 14 15  1  0  0  0  0
 14150  1  0  0  0  0
 15 16  1  0  0  0  0
 16 17  2  0  0  0  0
 16 18  2  0  0  0  0
 16 19  1  0  0  0  0
 19151  1  0  0  0  0
 20 21  1  0  0  0  0
 21 22  2  0  0  0  0
 21 23  2  0  0  0  0
 21 24  1  0  0  0  0
 24152  1  0  0  0  0
 25 26  1  0  0  0  0
 26 27  1  0  0  0  0
 26 31  1  0  0  0  0
 26153  1  0  0  0  0
 27 28  1  0  0  0  0
 27112  1  0  0  0  0
 27154  1  0  0  0  0
 28 29  1  0  0  0  0
 29 30  1  0  0  0  0
 29 42  1  0  0  0  0
 29155  1  0  0  0  0
 30 31  1  0  0  0  0
 30 37  1  0  0  0  0
 30156  1  0  0  0  0
 31 32  1  0  0  0  0
 31157  1  0  0  0  0
 32 33  1  0  0  0  0
 33 34  2  0  0  0  0
 33 35  2  0  0  0  0
 33 36  1  0  0  0  0
 36158  1  0  0  0  0
 37 38  1  0  0  0  0
 38 39  2  0  0  0  0
 38 40  2  0  0  0  0
 38 41  1  0  0  0  0
 41159  1  0  0  0  0
 42 43  1  0  0  0  0
 43 44  1  0  0  0  0
 43 48  1  0  0  0  0
 43160  1  0  0  0  0
 44 45  1  0  0  0  0
 44106  1  0  0  0  0
 44161  1  0  0  0  0
 45 46  1  0  0  0  0
 46 47  1  0  0  0  0
 46 59  1  0  0  0  0
 46162  1  0  0  0  0
 47 48  1  0  0  0  0
 47 54  1  0  0  0  0
 47163  1  0  0  0  0
 48 49  1  0  0  0  0
 48164  1  0  0  0  0
 49 50  1  0  0  0  0
 50 51  2  0  0  0  0
 50 52  2  0  0  0  0
 50 53  1  0  0  0  0
 53165  1  0  0  0  0
 54 55  1  0  0  0  0
 55 56  2  0  0  0  0
 55 57  2  0  0  0  0
 55 58  1  0  0  0  0
 58166  1  0  0  0  0
 59 60  1  0  0  0  0
 60 61  1  0  0  0  0
 60 65  1  0  0  0  0
 60167  1  0  0  0  0
 61 62  1  0  0  0  0
 61100  1  0  0  0  0
 61168  1  0  0  0  0
 62 63  1  0  0  0  0
 63 64  1  0  0  0  0
 63 76  1  0  0  0  0
 63169  1  0  0  0  0
 64 65  1  0  0  0  0
 64 71  1  0  0  0  0
 64170  1  0  0  0  0
 65 66  1  0  0  0  0
 65171  1  0  0  0  0
 66 67  1  0  0  0  0
 67 68  2  0  0  0  0
 67 69  2  0  0  0  0
 67 70  1  0  0  0  0
 70172  1  0  0  0  0
 71 72  1  0  0  0  0
 72 73  2  0  0  0  0
 72 74  2  0  0  0  0
 72 75  1  0  0  0  0
 75173  1  0  0  0  0
 76 77  1  0  0  0  0
 77 78  1  0  0  0  0
 77 83  1  0  0  0  0
 77174  1  0  0  0  0
 78 79  1  0  0  0  0
 78 94  1  0  0  0  0
 78175  1  0  0  0  0
 79 80  1  0  0  0  0
 80 81  1  0  0  0  0
 80 82  1  0  0  0  0
 80176  1  0  0  0  0
 82 83  1  0  0  0  0
 82 89  1  0  0  0  0
 82177  1  0  0  0  0
 83 84  1  0  0  0  0
 83178  1  0  0  0  0
 84 85  1  0  0  0  0
 85 86  2  0  0  0  0
 85 87  2  0  0  0  0
 85 88  1  0  0  0  0
 88179  1  0  0  0  0
 89 90  1  0  0  0  0
 90 91  2  0  0  0  0
 90 92  2  0  0  0  0
 90 93  1  0  0  0  0
 93180  1  0  0  0  0
 94 95  1  0  0  0  0
 94181  1  0  0  0  0
 94182  1  0  0  0  0
 95 96  1  0  0  0  0
 96 97  2  0  0  0  0
 96 98  2  0  0  0  0
 96 99  1  0  0  0  0
 99183  1  0  0  0  0
100101  1  0  0  0  0
100184  1  0  0  0  0
100185  1  0  0  0  0
101102  1  0  0  0  0
102103  2  0  0  0  0
102104  2  0  0  0  0
102105  1  0  0  0  0
105186  1  0  0  0  0
106107  1  0  0  0  0
106187  1  0  0  0  0
106188  1  0  0  0  0
107108  1  0  0  0  0
108109  2  0  0  0  0
108110  2  0  0  0  0
108111  1  0  0  0  0
111189  1  0  0  0  0
112113  1  0  0  0  0
112190  1  0  0  0  0
112191  1  0  0  0  0
113114  1  0  0  0  0
114115  2  0  0  0  0
114116  2  0  0  0  0
114117  1  0  0  0  0
117192  1  0  0  0  0
118119  1  0  0  0  0
118193  1  0  0  0  0
118194  1  0  0  0  0
119120  1  0  0  0  0
120121  2  0  0  0  0
120122  2  0  0  0  0
120123  1  0  0  0  0
123195  1  0  0  0  0
124125  1  0  0  0  0
125126  2  0  0  0  0
125127  2  0  0  0  0
125128  1  0  0  0  0
128196  1  0  0  0  0
129130  1  0  0  0  0
130131  2  0  0  0  0
130132  2  0  0  0  0
130133  1  0  0  0  0
133197  1  0  0  0  0
134135  1  0  0  0  0
135136  2  0  0  0  0
135137  2  0  0  0  0
135138  1  0  0  0  0
138198  1  0  0  0  0
M  END
