
 OpenBabel10072616333D

 53 55  0  0  0  0  0  0  0  0999 V2000
    0.7375   -1.1662   -1.1838 C   0  0  0  0  0  0  0  0  0  0  0  0
    1.3895    0.1570   -0.9079 C   0  0  0  0  0  0  0  0  0  0  0  0
    0.6567    1.3539   -0.9616 C   0  0  0  0  0  0  0  0  0  0  0  0
    1.2891    2.5777   -0.6978 C   0  0  0  0  0  0  0  0  0  0  0  0
    2.6581    2.6100   -0.4091 C   0  0  0  0  0  0  0  0  0  0  0  0
    3.3854    1.4189   -0.3471 C   0  0  0  0  0  0  0  0  0  0  0  0
    2.7547    0.1983   -0.5913 C   0  0  0  0  0  0  0  0  0  0  0  0
    0.5313    3.8585   -0.6540 C   0  0  0  0  0  0  0  0  0  0  0  0
    0.9945    4.8816   -1.1481 O   0  0  0  0  0  0  0  0  0  0  0  0
   -0.6817    3.8073    0.0224 N   0  0  0  0  0  0  0  0  0  0  0  0
   -1.5561    4.8375    0.3595 C   0  0  0  0  0  0  0  0  0  0  0  0
   -2.9131    4.3783    1.2151 S   0  0  0  0  0  0  0  0  0  0  0  0
   -1.1692    6.0865   -0.0671 N   0  0  0  0  0  0  0  0  0  0  0  0
   -1.7450    7.3757    0.0515 C   0  0  0  0  0  0  0  0  0  0  0  0
   -2.6949    7.7546    0.9991 C   0  0  0  0  0  0  0  0  0  0  0  0
   -3.2415    9.0493    0.9949 C   0  0  0  0  0  0  0  0  0  0  0  0
   -2.8499    9.9837    0.0293 C   0  0  0  0  0  0  0  0  0  0  0  0
   -1.8711    9.6363   -0.9002 C   0  0  0  0  0  0  0  0  0  0  0  0
   -1.3055    8.3508   -0.8620 C   0  0  0  0  0  0  0  0  0  0  0  0
   -3.7261   11.5398   -0.1039 S   0  0  0  0  0  0  0  0  0  0  0  0
   -4.0577   11.7267   -1.5023 O   0  0  0  0  0  0  0  0  0  0  0  0
   -4.7678   11.5245    0.9026 O   0  0  0  0  0  0  0  0  0  0  0  0
   -2.6315   12.7448    0.3483 N   0  0  0  0  0  0  0  0  0  0  0  0
   -2.0260   12.6591    1.7052 C   0  0  0  0  0  0  0  0  0  0  0  0
   -1.3927   14.0171    2.0986 C   0  0  0  0  0  0  0  0  0  0  0  0
   -0.4333   14.5203    1.0853 N   0  0  0  0  0  0  0  0  0  0  0  0
   -1.1125   14.6037   -0.2276 C   0  0  0  0  0  0  0  0  0  0  0  0
   -1.6602   13.2277   -0.6650 C   0  0  0  0  0  0  0  0  0  0  0  0
    0.0930   15.8288    1.4754 C   0  0  0  0  0  0  0  0  0  0  0  0
   -0.3255   -1.0529   -1.4190 H   0  0  0  0  0  0  0  0  0  0  0  0
    0.8185   -1.8147   -0.3060 H   0  0  0  0  0  0  0  0  0  0  0  0
    1.2205   -1.6552   -2.0357 H   0  0  0  0  0  0  0  0  0  0  0  0
   -0.3984    1.3250   -1.2267 H   0  0  0  0  0  0  0  0  0  0  0  0
    3.1621    3.5548   -0.2126 H   0  0  0  0  0  0  0  0  0  0  0  0
    4.4459    1.4344   -0.1053 H   0  0  0  0  0  0  0  0  0  0  0  0
    3.3294   -0.7261   -0.5335 H   0  0  0  0  0  0  0  0  0  0  0  0
   -0.9565    2.9181    0.4200 H   0  0  0  0  0  0  0  0  0  0  0  0
   -0.3603    6.0429   -0.6844 H   0  0  0  0  0  0  0  0  0  0  0  0
   -3.0275    7.0780    1.7771 H   0  0  0  0  0  0  0  0  0  0  0  0
   -3.9987    9.3051    1.7354 H   0  0  0  0  0  0  0  0  0  0  0  0
   -1.5685   10.3326   -1.6779 H   0  0  0  0  0  0  0  0  0  0  0  0
   -0.5417    8.1015   -1.5971 H   0  0  0  0  0  0  0  0  0  0  0  0
   -1.2523   11.8803    1.7015 H   0  0  0  0  0  0  0  0  0  0  0  0
   -2.7897   12.3991    2.4480 H   0  0  0  0  0  0  0  0  0  0  0  0
   -0.8666   13.8785    3.0510 H   0  0  0  0  0  0  0  0  0  0  0  0
   -2.1952   14.7515    2.2655 H   0  0  0  0  0  0  0  0  0  0  0  0
   -0.4067   14.9497   -0.9918 H   0  0  0  0  0  0  0  0  0  0  0  0
   -1.9409   15.3280   -0.1939 H   0  0  0  0  0  0  0  0  0  0  0  0
   -0.8412   12.5065   -0.7685 H   0  0  0  0  0  0  0  0  0  0  0  0
   -2.1519   13.3502   -1.6367 H   0  0  0  0  0  0  0  0  0  0  0  0
    0.6268   15.7538    2.4291 H   0  0  0  0  0  0  0  0  0  0  0  0
   -0.6886   16.5914    1.5777 H   0  0  0  0  0  0  0  0  0  0  0  0
    0.8209   16.1804    0.7353 H   0  0  0  0  0  0  0  0  0  0  0  0
  1  2  1  0  0  0  0
  1 30  1  0  0  0  0
  1 31  1  0  0  0  0
  1 32  1  0  0  0  0
  2  3  2  0  0  0  0
  2  7  1  0  0  0  0
  3  4  1  0  0  0  0
  3 33  1  0  0  0  0
  4  5  2  0  0  0  0
  4  8  1  0  0  0  0
  5  6  1  0  0  0  0
  5 34  1  0  0  0  0
  6  7  2  0  0  0  0
  6 35  1  0  0  0  0
  7 36  1  0  0  0  0
  8  9  2  0  0  0  0
  8 10  1  0  0  0  0
 10 11  1  0  0  0  0
 10 37  1  0  0  0  0
 11 12  2  0  0  0  0
 11 13  1  0  0  0  0
 13 14  1  0  0  0  0
 13 38  1  0  0  0  0
 14 15  2  0  0  0  0
 14 19  1  0  0  0  0
 15 16  1  0  0  0  0
 15 39  1  0  0  0  0
 16 17  2  0  0  0  0
 16 40  1  0  0  0  0
 17 18  1  0  0  0  0
 17 20  1  0  0  0  0
 18 19  2  0  0  0  0
 18 41  1  0  0  0  0
 19 42  1  0  0  0  0
 20 21  2  0  0  0  0
 20 22  2  0  0  0  0
 20 23  1  0  0  0  0
 23 24  1  0  0  0  0
 23 28  1  0  0  0  0
 24 25  1  0  0  0  0
 24 43  1  0  0  0  0
 24 44  1  0  0  0  0
 25 26  1  0  0  0  0
 25 45  1  0  0  0  0
 25 46  1  0  0  0  0
 26 27  1  0  0  0  0
 26 29  1  0  0  0  0
 27 28  1  0  0  0  0
 27 47  1  0  0  0  0
 27 48  1  0  0  0  0
 28 49  1  0  0  0  0
 28 50  1  0  0  0  0
 29 51  1  0  0  0  0
 29 52  1  0  0  0  0
 29 53  1  0  0  0  0
M  END
