
 OpenBabel10072619503D

 47 49  0  0  0  0  0  0  0  0999 V2000
    5.1577   -0.2362    6.7746 C   0  0  0  0  0  0  0  0  0  0  0  0
    6.0303    0.6824    5.9341 C   0  0  0  0  0  0  0  0  0  0  0  0
    5.3758    1.0086    4.5902 C   0  0  0  0  0  0  0  0  0  0  0  0
    6.2316    1.9857    3.7795 C   0  0  0  0  0  0  0  0  0  0  0  0
    5.7185    2.1075    2.3878 N   0  0  0  0  0  0  0  0  0  0  0  0
    4.4499    2.8565    2.2791 C   0  0  0  0  0  0  0  0  0  0  0  0
    6.8836    2.4367    1.1778 S   0  0  0  0  0  0  0  0  0  0  0  0
    8.0071    1.5450    1.3723 O   0  0  0  0  0  0  0  0  0  0  0  0
    6.2093    2.5167   -0.1010 O   0  0  0  0  0  0  0  0  0  0  0  0
    7.4278    4.0835    1.5975 C   0  0  0  0  0  0  0  0  0  0  0  0
    6.7376    5.1908    1.0976 C   0  0  0  0  0  0  0  0  0  0  0  0
    7.1417    6.4847    1.4577 C   0  0  0  0  0  0  0  0  0  0  0  0
    8.2833    6.6614    2.2601 C   0  0  0  0  0  0  0  0  0  0  0  0
    8.9846    5.5423    2.7358 C   0  0  0  0  0  0  0  0  0  0  0  0
    8.5542    4.2513    2.4055 C   0  0  0  0  0  0  0  0  0  0  0  0
   10.1365    5.7447    3.6763 C   0  0  0  0  0  0  0  0  0  0  0  0
   10.8911    7.0021    3.3038 C   0  0  0  0  0  0  0  0  0  0  0  0
    9.9720    8.1970    3.1913 C   0  0  0  0  0  0  0  0  0  0  0  0
   10.3727    9.3209    3.4972 O   0  0  0  0  0  0  0  0  0  0  0  0
    8.7240    7.9645    2.6187 N   0  0  0  0  0  0  0  0  0  0  0  0
    7.9306    9.1268    2.2328 C   0  0  0  0  0  0  0  0  0  0  0  0
    6.4682    8.8099    1.9630 C   0  0  0  0  0  0  0  0  0  0  0  0
    6.3709    7.6754    0.9555 C   0  0  0  0  0  0  0  0  0  0  0  0
    5.6606   -0.4818    7.7156 H   0  0  0  0  0  0  0  0  0  0  0  0
    4.9504   -1.1718    6.2460 H   0  0  0  0  0  0  0  0  0  0  0  0
    4.2033    0.2425    7.0152 H   0  0  0  0  0  0  0  0  0  0  0  0
    6.9984    0.1973    5.7645 H   0  0  0  0  0  0  0  0  0  0  0  0
    6.2231    1.6056    6.4926 H   0  0  0  0  0  0  0  0  0  0  0  0
    4.3819    1.4365    4.7670 H   0  0  0  0  0  0  0  0  0  0  0  0
    5.2270    0.0831    4.0206 H   0  0  0  0  0  0  0  0  0  0  0  0
    7.2609    1.6124    3.7683 H   0  0  0  0  0  0  0  0  0  0  0  0
    6.2419    2.9694    4.2638 H   0  0  0  0  0  0  0  0  0  0  0  0
    3.6522    2.3164    2.7973 H   0  0  0  0  0  0  0  0  0  0  0  0
    4.1293    2.9485    1.2378 H   0  0  0  0  0  0  0  0  0  0  0  0
    4.5420    3.8548    2.7160 H   0  0  0  0  0  0  0  0  0  0  0  0
    5.8775    5.0483    0.4459 H   0  0  0  0  0  0  0  0  0  0  0  0
    9.0908    3.3828    2.7833 H   0  0  0  0  0  0  0  0  0  0  0  0
   10.8204    4.8889    3.6430 H   0  0  0  0  0  0  0  0  0  0  0  0
    9.7441    5.8208    4.6977 H   0  0  0  0  0  0  0  0  0  0  0  0
   11.3976    6.8842    2.3384 H   0  0  0  0  0  0  0  0  0  0  0  0
   11.6527    7.2113    4.0630 H   0  0  0  0  0  0  0  0  0  0  0  0
    8.4004    9.5567    1.3389 H   0  0  0  0  0  0  0  0  0  0  0  0
    7.9979    9.8860    3.0216 H   0  0  0  0  0  0  0  0  0  0  0  0
    5.9522    9.6993    1.5853 H   0  0  0  0  0  0  0  0  0  0  0  0
    5.9751    8.5216    2.9009 H   0  0  0  0  0  0  0  0  0  0  0  0
    6.7815    7.9824   -0.0135 H   0  0  0  0  0  0  0  0  0  0  0  0
    5.3159    7.4173    0.8095 H   0  0  0  0  0  0  0  0  0  0  0  0
  1  2  1  0  0  0  0
  1 24  1  0  0  0  0
  1 25  1  0  0  0  0
  1 26  1  0  0  0  0
  2  3  1  0  0  0  0
  2 27  1  0  0  0  0
  2 28  1  0  0  0  0
  3  4  1  0  0  0  0
  3 29  1  0  0  0  0
  3 30  1  0  0  0  0
  4  5  1  0  0  0  0
  4 31  1  0  0  0  0
  4 32  1  0  0  0  0
  5  6  1  0  0  0  0
  5  7  1  0  0  0  0
  6 33  1  0  0  0  0
  6 34  1  0  0  0  0
  6 35  1  0  0  0  0
  7  8  2  0  0  0  0
  7  9  2  0  0  0  0
  7 10  1  0  0  0  0
 10 11  2  0  0  0  0
 10 15  1  0  0  0  0
 11 12  1  0  0  0  0
 11 36  1  0  0  0  0
 12 13  2  0  0  0  0
 12 23  1  0  0  0  0
 13 14  1  0  0  0  0
 13 20  1  0  0  0  0
 14 15  2  0  0  0  0
 14 16  1  0  0  0  0
 15 37  1  0  0  0  0
 16 17  1  0  0  0  0
 16 38  1  0  0  0  0
 16 39  1  0  0  0  0
 17 18  1  0  0  0  0
 17 40  1  0  0  0  0
 17 41  1  0  0  0  0
 18 19  2  0  0  0  0
 18 20  1  0  0  0  0
 20 21  1  0  0  0  0
 21 22  1  0  0  0  0
 21 42  1  0  0  0  0
 21 43  1  0  0  0  0
 22 23  1  0  0  0  0
 22 44  1  0  0  0  0
 22 45  1  0  0  0  0
 23 46  1  0  0  0  0
 23 47  1  0  0  0  0
M  END
