
 OpenBabel10072619443D

 54 55  0  0  1  0  0  0  0  0999 V2000
   -3.5252  -17.9107    8.9292 C   0  0  0  0  0  0  0  0  0  0  0  0
   -4.6753  -16.9098    8.7139 C   0  0  0  0  0  0  0  0  0  0  0  0
   -5.8277  -17.6162    7.9800 C   0  0  0  0  0  0  0  0  0  0  0  0
   -5.1655  -16.4377   10.0973 C   0  0  0  0  0  0  0  0  0  0  0  0
   -4.2053  -15.7498    7.8784 C   0  0  0  0  0  0  0  0  0  0  0  0
   -3.3382  -15.6101    6.8185 C   0  0  0  0  0  0  0  0  0  0  0  0
   -3.3826  -14.2333    6.4860 C   0  0  0  0  0  0  0  0  0  0  0  0
   -4.2229  -13.5876    7.2976 N   0  0  0  0  0  0  0  0  0  0  0  0
   -4.7458  -14.5311    8.1520 O   0  0  0  0  0  0  0  0  0  0  0  0
   -2.6252  -13.6629    5.4813 N   0  0  0  0  0  0  0  0  0  0  0  0
   -2.7785  -12.3774    5.0214 C   0  0  0  0  0  0  0  0  0  0  0  0
   -3.7048  -11.6277    5.3182 O   0  0  0  0  0  0  0  0  0  0  0  0
   -1.7828  -11.9672    4.1297 N   0  0  0  0  0  0  0  0  0  0  0  0
   -0.4224  -12.4867    4.1396 C   0  0  0  0  0  0  0  0  0  0  0  0
   -1.9779  -10.6588    3.5303 C   0  0  0  0  0  0  0  0  0  0  0  0
   -1.2939  -10.6187    2.2823 O   0  0  0  0  0  0  0  0  0  0  0  0
   -1.4176   -9.3294    1.6680 C   0  0  1  0  0  0  0  0  0  0  0  0
   -0.5628   -9.3681    0.3856 C   0  0  1  0  0  0  0  0  0  0  0  0
   -0.6714   -8.0296   -0.3423 C   0  0  2  0  0  0  0  0  0  0  0  0
   -2.1404   -7.6877   -0.5974 C   0  0  1  0  0  0  0  0  0  0  0  0
   -2.9265   -7.7493    0.7252 C   0  0  2  0  0  0  0  0  0  0  0  0
   -2.7750   -9.0393    1.3366 O   0  0  0  0  0  0  0  0  0  0  0  0
   -4.4188   -7.4725    0.4884 C   0  0  0  0  0  0  0  0  0  0  0  0
   -4.6547   -6.1244    0.0943 O   0  0  0  0  0  0  0  0  0  0  0  0
   -2.2397   -6.3936   -1.2009 O   0  0  0  0  0  0  0  0  0  0  0  0
    0.0237   -8.0838   -1.5979 O   0  0  0  0  0  0  0  0  0  0  0  0
    0.8173   -9.6361    0.6756 O   0  0  0  0  0  0  0  0  0  0  0  0
   -3.8450  -18.7575    9.5476 H   0  0  0  0  0  0  0  0  0  0  0  0
   -2.6744  -17.4342    9.4300 H   0  0  0  0  0  0  0  0  0  0  0  0
   -3.1608  -18.3191    7.9798 H   0  0  0  0  0  0  0  0  0  0  0  0
   -6.1989  -18.4768    8.5475 H   0  0  0  0  0  0  0  0  0  0  0  0
   -5.5089  -17.9800    6.9960 H   0  0  0  0  0  0  0  0  0  0  0  0
   -6.6711  -16.9355    7.8158 H   0  0  0  0  0  0  0  0  0  0  0  0
   -5.4704  -17.2843   10.7228 H   0  0  0  0  0  0  0  0  0  0  0  0
   -6.0293  -15.7674   10.0146 H   0  0  0  0  0  0  0  0  0  0  0  0
   -4.3785  -15.8940   10.6338 H   0  0  0  0  0  0  0  0  0  0  0  0
   -2.7584  -16.3928    6.3539 H   0  0  0  0  0  0  0  0  0  0  0  0
   -2.0751  -14.2944    4.9258 H   0  0  0  0  0  0  0  0  0  0  0  0
   -0.3026  -13.3516    4.7933 H   0  0  0  0  0  0  0  0  0  0  0  0
    0.2544  -11.7066    4.5022 H   0  0  0  0  0  0  0  0  0  0  0  0
   -0.1391  -12.7700    3.1227 H   0  0  0  0  0  0  0  0  0  0  0  0
   -1.5605   -9.9143    4.2196 H   0  0  0  0  0  0  0  0  0  0  0  0
   -3.0447  -10.4645    3.3770 H   0  0  0  0  0  0  0  0  0  0  0  0
   -1.0229   -8.5775    2.3654 H   0  0  0  0  0  0  0  0  0  0  0  0
   -0.9006  -10.1766   -0.2754 H   0  0  0  0  0  0  0  0  0  0  0  0
   -0.1853   -7.2306    0.2312 H   0  0  0  0  0  0  0  0  0  0  0  0
   -2.5512   -8.4077   -1.3163 H   0  0  0  0  0  0  0  0  0  0  0  0
   -2.5553   -6.9772    1.4126 H   0  0  0  0  0  0  0  0  0  0  0  0
   -4.8214   -8.1392   -0.2818 H   0  0  0  0  0  0  0  0  0  0  0  0
   -4.9923   -7.6626    1.4021 H   0  0  0  0  0  0  0  0  0  0  0  0
   -3.9881   -5.9034   -0.5908 H   0  0  0  0  0  0  0  0  0  0  0  0
   -1.5824   -6.4052   -1.9285 H   0  0  0  0  0  0  0  0  0  0  0  0
    0.8995   -8.4673   -1.3874 H   0  0  0  0  0  0  0  0  0  0  0  0
    0.8062  -10.4461    1.2234 H   0  0  0  0  0  0  0  0  0  0  0  0
  1  2  1  0  0  0  0
  1 28  1  0  0  0  0
  1 29  1  0  0  0  0
  1 30  1  0  0  0  0
  2  3  1  0  0  0  0
  2  4  1  0  0  0  0
  2  5  1  0  0  0  0
  3 31  1  0  0  0  0
  3 32  1  0  0  0  0
  3 33  1  0  0  0  0
  4 34  1  0  0  0  0
  4 35  1  0  0  0  0
  4 36  1  0  0  0  0
  5  6  2  0  0  0  0
  5  9  1  0  0  0  0
  6  7  1  0  0  0  0
  6 37  1  0  0  0  0
  7  8  2  0  0  0  0
  7 10  1  0  0  0  0
  8  9  1  0  0  0  0
 10 11  1  0  0  0  0
 10 38  1  0  0  0  0
 11 12  2  0  0  0  0
 11 13  1  0  0  0  0
 13 14  1  0  0  0  0
 13 15  1  0  0  0  0
 14 39  1  0  0  0  0
 14 40  1  0  0  0  0
 14 41  1  0  0  0  0
 15 16  1  0  0  0  0
 15 42  1  0  0  0  0
 15 43  1  0  0  0  0
 17 18  1  0  0  0  0
 17 22  1  0  0  0  0
 17 16  1  0  0  0  0
 17 44  1  1  0  0  0
 18 19  1  0  0  0  0
 18 27  1  0  0  0  0
 18 45  1  6  0  0  0
 19 20  1  0  0  0  0
 19 26  1  0  0  0  0
 19 46  1  1  0  0  0
 20 21  1  0  0  0  0
 20 25  1  0  0  0  0
 20 47  1  6  0  0  0
 21 22  1  0  0  0  0
 21 23  1  0  0  0  0
 21 48  1  1  0  0  0
 23 24  1  0  0  0  0
 23 49  1  0  0  0  0
 23 50  1  0  0  0  0
 24 51  1  0  0  0  0
 25 52  1  0  0  0  0
 26 53  1  0  0  0  0
 27 54  1  0  0  0  0
M  END
