
 OpenBabel10072620203D

 31 32  0  0  0  0  0  0  0  0999 V2000
    3.4939   -0.6796    1.2015 C   0  0  0  0  0  0  0  0  0  0  0  0
    4.3471   -1.1827    0.1335 N   0  0  0  0  0  0  0  0  0  0  0  0
    4.1801   -2.5876   -0.2079 C   0  0  0  0  0  0  0  0  0  0  0  0
    4.8589   -0.3035   -0.8011 C   0  0  0  0  0  0  0  0  0  0  0  0
    4.8080    0.9844   -0.7346 N   0  0  0  0  0  0  0  0  0  0  0  0
    5.3786    1.6345   -1.7777 C   0  0  0  0  0  0  0  0  0  0  0  0
    6.0548    1.1680   -2.8127 N   0  0  0  0  0  0  0  0  0  0  0  0
    6.4128    2.2399   -3.5955 N   0  0  0  0  0  0  0  0  0  0  0  0
    5.9440    3.3305   -3.0149 C   0  0  0  0  0  0  0  0  0  0  0  0
    5.2797    3.0042   -1.8511 O   0  0  0  0  0  0  0  0  0  0  0  0
    6.0847    4.6573   -3.5019 C   0  0  0  0  0  0  0  0  0  0  0  0
    5.5553    5.7023   -2.8484 C   0  0  0  0  0  0  0  0  0  0  0  0
    5.6947    7.0241   -3.3529 C   0  0  0  0  0  0  0  0  0  0  0  0
    5.2130    8.2141   -2.8097 C   0  0  0  0  0  0  0  0  0  0  0  0
    5.5923    9.2790   -3.6649 C   0  0  0  0  0  0  0  0  0  0  0  0
    6.2880    8.6833   -4.6841 C   0  0  0  0  0  0  0  0  0  0  0  0
    6.3621    7.3397   -4.5199 O   0  0  0  0  0  0  0  0  0  0  0  0
    6.9221    9.2218   -5.8448 N   0  3  0  0  0  0  0  0  0  0  0  0
    6.8454   10.4498   -5.9888 O   0  0  0  0  0  0  0  0  0  0  0  0
    7.4934    8.4363   -6.6114 O   0  5  0  0  0  0  0  0  0  0  0  0
    3.3554   -1.4331    1.9841 H   0  0  0  0  0  0  0  0  0  0  0  0
    2.5098   -0.4072    0.8062 H   0  0  0  0  0  0  0  0  0  0  0  0
    3.9391    0.2005    1.6777 H   0  0  0  0  0  0  0  0  0  0  0  0
    4.0872   -3.2035    0.6927 H   0  0  0  0  0  0  0  0  0  0  0  0
    5.0440   -2.9609   -0.7683 H   0  0  0  0  0  0  0  0  0  0  0  0
    3.2818   -2.7253   -0.8184 H   0  0  0  0  0  0  0  0  0  0  0  0
    5.3321   -0.8397   -1.6471 H   0  0  0  0  0  0  0  0  0  0  0  0
    6.6362    4.7802   -4.4292 H   0  0  0  0  0  0  0  0  0  0  0  0
    5.0041    5.5649   -1.9215 H   0  0  0  0  0  0  0  0  0  0  0  0
    4.6461    8.2952   -1.8909 H   0  0  0  0  0  0  0  0  0  0  0  0
    5.3868   10.3345   -3.5527 H   0  0  0  0  0  0  0  0  0  0  0  0
  1  2  1  0  0  0  0
  1 21  1  0  0  0  0
  1 22  1  0  0  0  0
  1 23  1  0  0  0  0
  2  3  1  0  0  0  0
  2  4  1  0  0  0  0
  3 24  1  0  0  0  0
  3 25  1  0  0  0  0
  3 26  1  0  0  0  0
  4  5  2  0  0  0  0
  4 27  1  0  0  0  0
  5  6  1  0  0  0  0
  6  7  2  0  0  0  0
  6 10  1  0  0  0  0
  7  8  1  0  0  0  0
  8  9  2  0  0  0  0
  9 10  1  0  0  0  0
  9 11  1  0  0  0  0
 11 12  2  0  0  0  0
 11 28  1  0  0  0  0
 12 13  1  0  0  0  0
 12 29  1  0  0  0  0
 13 14  2  0  0  0  0
 13 17  1  0  0  0  0
 14 15  1  0  0  0  0
 14 30  1  0  0  0  0
 15 16  2  0  0  0  0
 15 31  1  0  0  0  0
 16 17  1  0  0  0  0
 16 18  1  0  0  0  0
 18 19  2  0  0  0  0
 18 20  1  0  0  0  0
M  CHG  2  18   1  20  -1
M  END
