
 OpenBabel10072620093D

 54 57  0  0  1  0  0  0  0  0999 V2000
    2.4064    3.2512    2.2170 C   0  0  0  0  0  0  0  0  0  0  0  0
    2.3535    2.2542    1.1361 N   0  0  0  0  0  0  0  0  0  0  0  0
    2.6069    2.8311   -0.1944 C   0  0  0  0  0  0  0  0  0  0  0  0
    3.0104    0.7153    1.4426 S   0  0  0  0  0  0  0  0  0  0  0  0
    2.7048    0.3466    2.8074 O   0  0  0  0  0  0  0  0  0  0  0  0
    2.6473   -0.1474    0.3378 O   0  0  0  0  0  0  0  0  0  0  0  0
    4.7668    0.9879    1.3452 C   0  0  0  0  0  0  0  0  0  0  0  0
    5.4083    1.6617    2.3821 C   0  0  0  0  0  0  0  0  0  0  0  0
    6.7900    1.8559    2.3299 C   0  0  0  0  0  0  0  0  0  0  0  0
    7.5595    1.3233    1.2841 C   0  0  0  0  0  0  0  0  0  0  0  0
    6.8960    0.6299    0.2554 C   0  0  0  0  0  0  0  0  0  0  0  0
    5.5039    0.4711    0.2763 C   0  0  0  0  0  0  0  0  0  0  0  0
    9.0257    1.5380    1.2243 C   0  0  0  0  0  0  0  0  0  0  0  0
    9.9021    1.3804    2.2340 C   0  0  0  0  0  0  0  0  0  0  0  0
   11.3820    1.7277    2.2693 C   0  0  3  0  0  0  0  0  0  0  0  0
   11.7105    1.7901    3.6958 N   0  0  0  0  0  0  0  0  0  0  0  0
   10.7467    1.2204    4.4941 C   0  0  0  0  0  0  0  0  0  0  0  0
   10.7732    1.0221    5.6901 O   0  0  0  0  0  0  0  0  0  0  0  0
    9.5772    0.8668    3.5881 C   0  0  0  0  0  0  0  0  0  0  0  0
    8.6116    0.2292    3.9434 O   0  0  0  0  0  0  0  0  0  0  0  0
   13.0508    2.0260    4.2074 C   0  0  0  0  0  0  0  0  0  0  0  0
   13.9517    0.8263    4.1134 C   0  0  0  0  0  0  0  0  0  0  0  0
   14.8738    0.6889    3.0821 C   0  0  0  0  0  0  0  0  0  0  0  0
   15.7397   -0.3437    2.9695 N   0  0  0  0  0  0  0  0  0  0  0  0
   15.6884   -1.2895    3.9313 C   0  0  0  0  0  0  0  0  0  0  0  0
   14.7977   -1.2614    4.9887 C   0  0  0  0  0  0  0  0  0  0  0  0
   13.9161   -0.1887    5.0760 C   0  0  0  0  0  0  0  0  0  0  0  0
   11.7931    3.0231    1.6124 C   0  0  0  0  0  0  0  0  0  0  0  0
   11.3468    4.3095    1.8611 C   0  0  0  0  0  0  0  0  0  0  0  0
   11.9968    5.2788    1.0430 C   0  0  0  0  0  0  0  0  0  0  0  0
   12.9183    4.7060    0.1961 C   0  0  0  0  0  0  0  0  0  0  0  0
   12.9656    3.0067    0.3572 S   0  0  0  0  0  0  0  0  0  0  0  0
    9.4837    1.9825   -0.0065 O   0  0  0  0  0  0  0  0  0  0  0  0
    1.5939    3.9718    2.0810 H   0  0  0  0  0  0  0  0  0  0  0  0
    3.3542    3.7961    2.2114 H   0  0  0  0  0  0  0  0  0  0  0  0
    2.2597    2.7968    3.1993 H   0  0  0  0  0  0  0  0  0  0  0  0
    1.9319    3.6765   -0.3655 H   0  0  0  0  0  0  0  0  0  0  0  0
    2.4165    2.1042   -0.9881 H   0  0  0  0  0  0  0  0  0  0  0  0
    3.6368    3.1941   -0.2742 H   0  0  0  0  0  0  0  0  0  0  0  0
    4.8487    2.0344    3.2360 H   0  0  0  0  0  0  0  0  0  0  0  0
    7.2588    2.4027    3.1447 H   0  0  0  0  0  0  0  0  0  0  0  0
    7.4566    0.1939   -0.5711 H   0  0  0  0  0  0  0  0  0  0  0  0
    5.0106   -0.0698   -0.5303 H   0  0  0  0  0  0  0  0  0  0  0  0
   11.9426    0.8782    1.8602 H   0  0  0  0  0  0  0  0  0  0  0  0
   12.9695    2.3064    5.2663 H   0  0  0  0  0  0  0  0  0  0  0  0
   13.4899    2.8941    3.7053 H   0  0  0  0  0  0  0  0  0  0  0  0
   14.9585    1.4315    2.2940 H   0  0  0  0  0  0  0  0  0  0  0  0
   16.4064   -2.0970    3.8257 H   0  0  0  0  0  0  0  0  0  0  0  0
   14.7969   -2.0500    5.7325 H   0  0  0  0  0  0  0  0  0  0  0  0
   13.2158   -0.1418    5.9079 H   0  0  0  0  0  0  0  0  0  0  0  0
   10.5891    4.5429    2.5998 H   0  0  0  0  0  0  0  0  0  0  0  0
   11.8004    6.3436    1.0776 H   0  0  0  0  0  0  0  0  0  0  0  0
   13.5565    5.2008   -0.5240 H   0  0  0  0  0  0  0  0  0  0  0  0
    8.7210    2.2220   -0.5642 H   0  0  0  0  0  0  0  0  0  0  0  0
  1  2  1  0  0  0  0
  1 34  1  0  0  0  0
  1 35  1  0  0  0  0
  1 36  1  0  0  0  0
  2  3  1  0  0  0  0
  2  4  1  0  0  0  0
  3 37  1  0  0  0  0
  3 38  1  0  0  0  0
  3 39  1  0  0  0  0
  4  5  2  0  0  0  0
  4  6  2  0  0  0  0
  4  7  1  0  0  0  0
  7  8  2  0  0  0  0
  7 12  1  0  0  0  0
  8  9  1  0  0  0  0
  8 40  1  0  0  0  0
  9 10  2  0  0  0  0
  9 41  1  0  0  0  0
 10 11  1  0  0  0  0
 10 13  1  0  0  0  0
 11 12  2  0  0  0  0
 11 42  1  0  0  0  0
 12 43  1  0  0  0  0
 13 14  2  3  0  0  0
 13 33  1  0  0  0  0
 14 15  1  0  0  0  0
 14 19  1  0  0  0  0
 15 16  1  0  0  0  0
 15 28  1  0  0  0  0
 15 44  1  0  0  0  0
 16 17  1  0  0  0  0
 16 21  1  0  0  0  0
 17 18  2  0  0  0  0
 17 19  1  0  0  0  0
 19 20  2  0  0  0  0
 21 22  1  0  0  0  0
 21 45  1  0  0  0  0
 21 46  1  0  0  0  0
 22 23  2  0  0  0  0
 22 27  1  0  0  0  0
 23 24  1  0  0  0  0
 23 47  1  0  0  0  0
 24 25  2  0  0  0  0
 25 26  1  0  0  0  0
 25 48  1  0  0  0  0
 26 27  2  0  0  0  0
 26 49  1  0  0  0  0
 27 50  1  0  0  0  0
 28 29  2  0  0  0  0
 28 32  1  0  0  0  0
 29 30  1  0  0  0  0
 29 51  1  0  0  0  0
 30 31  2  0  0  0  0
 30 52  1  0  0  0  0
 31 32  1  0  0  0  0
 31 53  1  0  0  0  0
 33 54  1  0  0  0  0
M  END
