
 OpenBabel10072616313D

 29 29  0  0  0  0  0  0  0  0999 V2000
    1.1010    0.1501    0.0868 C   0  0  0  0  0  0  0  0  0  0  0  0
    2.5950   -0.1271    0.0283 C   0  0  0  0  0  0  0  0  0  0  0  0
    3.0728   -0.8744    1.2721 C   0  0  0  0  0  0  0  0  0  0  0  0
    4.5694   -1.1595    1.2080 C   0  0  0  0  0  0  0  0  0  0  0  0
    5.1271   -2.0117    2.6805 S   0  0  0  0  0  0  0  0  0  0  0  0
    5.0422   -1.0917    3.7945 O   0  0  0  0  0  0  0  0  0  0  0  0
    4.5250   -3.3248    2.7276 O   0  0  0  0  0  0  0  0  0  0  0  0
    6.7904   -2.1479    2.3507 N   0  0  0  0  0  0  0  0  0  0  0  0
    7.2938   -3.4688    2.1434 C   0  0  0  0  0  0  0  0  0  0  0  0
    7.1371   -4.0822    0.9013 C   0  0  0  0  0  0  0  0  0  0  0  0
    7.5873   -5.3893    0.7205 C   0  0  0  0  0  0  0  0  0  0  0  0
    8.1793   -6.0904    1.7687 C   0  0  0  0  0  0  0  0  0  0  0  0
    8.3131   -5.4717    3.0098 C   0  0  0  0  0  0  0  0  0  0  0  0
    7.8683   -4.1646    3.2073 C   0  0  0  0  0  0  0  0  0  0  0  0
    9.0359   -6.3298    4.3150 Cl  0  0  0  0  0  0  0  0  0  0  0  0
    7.4117   -6.1431   -0.8167 Cl  0  0  0  0  0  0  0  0  0  0  0  0
    0.7781    0.6836   -0.8125 H   0  0  0  0  0  0  0  0  0  0  0  0
    0.8500    0.7666    0.9559 H   0  0  0  0  0  0  0  0  0  0  0  0
    0.5311   -0.7823    0.1514 H   0  0  0  0  0  0  0  0  0  0  0  0
    3.1335    0.8231   -0.0652 H   0  0  0  0  0  0  0  0  0  0  0  0
    2.8169   -0.7160   -0.8692 H   0  0  0  0  0  0  0  0  0  0  0  0
    2.5214   -1.8175    1.3706 H   0  0  0  0  0  0  0  0  0  0  0  0
    2.8455   -0.2832    2.1675 H   0  0  0  0  0  0  0  0  0  0  0  0
    5.1392   -0.2276    1.1350 H   0  0  0  0  0  0  0  0  0  0  0  0
    4.8028   -1.7982    0.3509 H   0  0  0  0  0  0  0  0  0  0  0  0
    7.2950   -1.6009    3.0536 H   0  0  0  0  0  0  0  0  0  0  0  0
    6.6737   -3.5475    0.0781 H   0  0  0  0  0  0  0  0  0  0  0  0
    8.5264   -7.1095    1.6219 H   0  0  0  0  0  0  0  0  0  0  0  0
    7.9609   -3.7030    4.1863 H   0  0  0  0  0  0  0  0  0  0  0  0
  1  2  1  0  0  0  0
  1 17  1  0  0  0  0
  1 18  1  0  0  0  0
  1 19  1  0  0  0  0
  2  3  1  0  0  0  0
  2 20  1  0  0  0  0
  2 21  1  0  0  0  0
  3  4  1  0  0  0  0
  3 22  1  0  0  0  0
  3 23  1  0  0  0  0
  4  5  1  0  0  0  0
  4 24  1  0  0  0  0
  4 25  1  0  0  0  0
  5  6  2  0  0  0  0
  5  7  2  0  0  0  0
  5  8  1  0  0  0  0
  8  9  1  0  0  0  0
  8 26  1  0  0  0  0
  9 10  2  0  0  0  0
  9 14  1  0  0  0  0
 10 11  1  0  0  0  0
 10 27  1  0  0  0  0
 11 12  2  0  0  0  0
 11 16  1  0  0  0  0
 12 13  1  0  0  0  0
 12 28  1  0  0  0  0
 13 14  2  0  0  0  0
 13 15  1  0  0  0  0
 14 29  1  0  0  0  0
M  END
