
 OpenBabel10072620233D

 39 41  0  0  0  0  0  0  0  0999 V2000
   -0.7355    4.2373   -0.5949 C   0  0  0  0  0  0  0  0  0  0  0  0
   -2.0836    4.3823   -0.2483 C   0  0  0  0  0  0  0  0  0  0  0  0
   -2.7030    3.4600    0.6064 C   0  0  0  0  0  0  0  0  0  0  0  0
   -1.9444    2.3929    1.1105 C   0  0  0  0  0  0  0  0  0  0  0  0
   -0.5963    2.2501    0.7640 C   0  0  0  0  0  0  0  0  0  0  0  0
    0.0233    3.1692   -0.0948 C   0  0  0  0  0  0  0  0  0  0  0  0
    1.4282    3.0269   -0.4658 C   0  0  0  0  0  0  0  0  0  0  0  0
    2.2404    2.0702    0.0151 N   0  0  0  0  0  0  0  0  0  0  0  0
    3.4640    2.3322   -0.5951 O   0  0  0  0  0  0  0  0  0  0  0  0
    3.2748    3.4205   -1.3937 C   0  0  0  0  0  0  0  0  0  0  0  0
    2.0433    3.8784   -1.3598 N   0  0  0  0  0  0  0  0  0  0  0  0
    4.4502    3.8907   -2.1636 C   0  0  0  0  0  0  0  0  0  0  0  0
    4.4649    3.2716   -3.4772 N   0  0  0  0  0  0  0  0  0  0  0  0
    5.3672    3.7382   -4.4085 C   0  0  0  0  0  0  0  0  0  0  0  0
    6.0816    4.7078   -4.2007 O   0  0  0  0  0  0  0  0  0  0  0  0
    5.2862    3.0076   -5.5731 N   0  0  0  0  0  0  0  0  0  0  0  0
    6.1708    3.1199   -6.6682 C   0  0  0  0  0  0  0  0  0  0  0  0
    7.5184    3.4968   -6.5550 C   0  0  0  0  0  0  0  0  0  0  0  0
    8.3330    3.6047   -7.6791 C   0  0  0  0  0  0  0  0  0  0  0  0
    7.8042    3.3134   -8.9273 C   0  0  0  0  0  0  0  0  0  0  0  0
    6.4836    2.9004   -9.0658 C   0  0  0  0  0  0  0  0  0  0  0  0
    5.6682    2.7939   -7.9358 C   0  0  0  0  0  0  0  0  0  0  0  0
    8.5800    3.4135  -10.0140 F   0  0  0  0  0  0  0  0  0  0  0  0
    8.0917    3.6821   -5.3578 F   0  0  0  0  0  0  0  0  0  0  0  0
   -4.1570    3.5994    0.9885 C   0  0  0  0  0  0  0  0  0  0  0  0
   -4.7703    4.6753    0.4207 F   0  0  0  0  0  0  0  0  0  0  0  0
   -4.8971    2.5150    0.6258 F   0  0  0  0  0  0  0  0  0  0  0  0
   -4.3300    3.7374    2.3321 F   0  0  0  0  0  0  0  0  0  0  0  0
   -0.2799    4.9707   -1.2591 H   0  0  0  0  0  0  0  0  0  0  0  0
   -2.6463    5.2238   -0.6511 H   0  0  0  0  0  0  0  0  0  0  0  0
   -2.4020    1.6645    1.7793 H   0  0  0  0  0  0  0  0  0  0  0  0
   -0.0348    1.4116    1.1736 H   0  0  0  0  0  0  0  0  0  0  0  0
    5.3849    3.6321   -1.6529 H   0  0  0  0  0  0  0  0  0  0  0  0
    4.4160    4.9797   -2.2776 H   0  0  0  0  0  0  0  0  0  0  0  0
    4.2993    2.2758   -3.5122 H   0  0  0  0  0  0  0  0  0  0  0  0
    4.3640    2.6425   -5.7626 H   0  0  0  0  0  0  0  0  0  0  0  0
    9.3715    3.8957   -7.5744 H   0  0  0  0  0  0  0  0  0  0  0  0
    6.0967    2.6672  -10.0535 H   0  0  0  0  0  0  0  0  0  0  0  0
    4.6362    2.4772   -8.0640 H   0  0  0  0  0  0  0  0  0  0  0  0
  1  2  2  0  0  0  0
  1  6  1  0  0  0  0
  1 29  1  0  0  0  0
  2  3  1  0  0  0  0
  2 30  1  0  0  0  0
  3  4  2  0  0  0  0
  3 25  1  0  0  0  0
  4  5  1  0  0  0  0
  4 31  1  0  0  0  0
  5  6  2  0  0  0  0
  5 32  1  0  0  0  0
  6  7  1  0  0  0  0
  7  8  2  0  0  0  0
  7 11  1  0  0  0  0
  8  9  1  0  0  0  0
  9 10  1  0  0  0  0
 10 11  2  0  0  0  0
 10 12  1  0  0  0  0
 12 13  1  0  0  0  0
 12 33  1  0  0  0  0
 12 34  1  0  0  0  0
 13 14  1  0  0  0  0
 13 35  1  0  0  0  0
 14 15  2  0  0  0  0
 14 16  1  0  0  0  0
 16 17  1  0  0  0  0
 16 36  1  0  0  0  0
 17 18  2  0  0  0  0
 17 22  1  0  0  0  0
 18 19  1  0  0  0  0
 18 24  1  0  0  0  0
 19 20  2  0  0  0  0
 19 37  1  0  0  0  0
 20 21  1  0  0  0  0
 20 23  1  0  0  0  0
 21 22  2  0  0  0  0
 21 38  1  0  0  0  0
 22 39  1  0  0  0  0
 25 26  1  0  0  0  0
 25 27  1  0  0  0  0
 25 28  1  0  0  0  0
M  END
