
 OpenBabel10072616333D

 33 32  0  0  0  0  0  0  0  0999 V2000
    4.0844    1.9393    4.8590 C   0  0  0  0  0  0  0  0  0  0  0  0
    4.2416    0.4754    4.5755 C   0  0  0  0  0  0  0  0  0  0  0  0
    4.1343   -0.4587    5.5364 C   0  0  0  0  0  0  0  0  0  0  0  0
    4.5313    0.1333    3.1545 C   0  0  0  0  0  0  0  0  0  0  0  0
    4.5300    0.9563    2.2516 O   0  0  0  0  0  0  0  0  0  0  0  0
    4.8159   -1.1849    3.0002 O   0  0  0  0  0  0  0  0  0  0  0  0
    5.2313   -1.5765    1.6724 C   0  0  0  0  0  0  0  0  0  0  0  0
    6.7411   -1.3966    1.5013 C   0  0  0  0  0  0  0  0  0  0  0  0
    7.2864   -1.8947    0.1671 C   0  0  0  0  0  0  0  0  0  0  0  0
    6.7621   -1.1912   -1.0736 C   0  0  0  0  0  0  0  0  0  0  0  0
    6.9628    0.3117   -1.1915 C   0  0  0  0  0  0  0  0  0  0  0  0
    8.4055    0.7566   -1.1475 C   0  0  0  0  0  0  0  0  0  0  0  0
    8.4983    2.2450   -1.4246 C   0  0  0  0  0  0  0  0  0  0  0  0
    7.7969    2.9774   -0.5301 F   0  0  0  0  0  0  0  0  0  0  0  0
    9.7838    2.6761   -1.3601 F   0  0  0  0  0  0  0  0  0  0  0  0
    8.0425    2.5700   -2.6564 F   0  0  0  0  0  0  0  0  0  0  0  0
    8.9458    0.4775    0.0694 F   0  0  0  0  0  0  0  0  0  0  0  0
    9.1446    0.0566   -2.0516 F   0  0  0  0  0  0  0  0  0  0  0  0
    6.4023    0.7095   -2.3753 F   0  0  0  0  0  0  0  0  0  0  0  0
    6.2346    0.9397   -0.2335 F   0  0  0  0  0  0  0  0  0  0  0  0
    7.3113   -1.7924   -2.1759 F   0  0  0  0  0  0  0  0  0  0  0  0
    5.4191   -1.4552   -1.1744 F   0  0  0  0  0  0  0  0  0  0  0  0
    8.6487   -1.8342    0.1716 F   0  0  0  0  0  0  0  0  0  0  0  0
    6.9961   -3.2315    0.0577 F   0  0  0  0  0  0  0  0  0  0  0  0
    7.0953   -0.1009    1.6914 F   0  0  0  0  0  0  0  0  0  0  0  0
    7.3571   -2.0909    2.5071 F   0  0  0  0  0  0  0  0  0  0  0  0
    3.9133    2.1330    5.9233 H   0  0  0  0  0  0  0  0  0  0  0  0
    3.2331    2.3505    4.3067 H   0  0  0  0  0  0  0  0  0  0  0  0
    4.9875    2.4860    4.5673 H   0  0  0  0  0  0  0  0  0  0  0  0
    3.9257   -0.1829    6.5656 H   0  0  0  0  0  0  0  0  0  0  0  0
    4.2501   -1.5191    5.3347 H   0  0  0  0  0  0  0  0  0  0  0  0
    4.6538   -1.0211    0.9280 H   0  0  0  0  0  0  0  0  0  0  0  0
    4.9684   -2.6350    1.5729 H   0  0  0  0  0  0  0  0  0  0  0  0
  1  2  1  0  0  0  0
  1 27  1  0  0  0  0
  1 28  1  0  0  0  0
  1 29  1  0  0  0  0
  2  3  2  0  0  0  0
  2  4  1  0  0  0  0
  3 30  1  0  0  0  0
  3 31  1  0  0  0  0
  4  5  2  0  0  0  0
  4  6  1  0  0  0  0
  6  7  1  0  0  0  0
  7  8  1  0  0  0  0
  7 32  1  0  0  0  0
  7 33  1  0  0  0  0
  8  9  1  0  0  0  0
  8 25  1  0  0  0  0
  8 26  1  0  0  0  0
  9 10  1  0  0  0  0
  9 23  1  0  0  0  0
  9 24  1  0  0  0  0
 10 11  1  0  0  0  0
 10 21  1  0  0  0  0
 10 22  1  0  0  0  0
 11 12  1  0  0  0  0
 11 19  1  0  0  0  0
 11 20  1  0  0  0  0
 12 13  1  0  0  0  0
 12 17  1  0  0  0  0
 12 18  1  0  0  0  0
 13 14  1  0  0  0  0
 13 15  1  0  0  0  0
 13 16  1  0  0  0  0
M  END
