
 OpenBabel10072619553D

 31 32  0  0  0  0  0  0  0  0999 V2000
   -4.2980    2.9619    2.6310 C   0  0  0  0  0  0  0  0  0  0  0  0
   -4.0440    1.6651    3.0732 C   0  0  0  0  0  0  0  0  0  0  0  0
   -3.5327    0.7108    2.1940 C   0  0  0  0  0  0  0  0  0  0  0  0
   -3.2833    1.0432    0.8553 C   0  0  0  0  0  0  0  0  0  0  0  0
   -3.5378    2.3529    0.4216 C   0  0  0  0  0  0  0  0  0  0  0  0
   -4.0426    3.3064    1.3061 C   0  0  0  0  0  0  0  0  0  0  0  0
   -2.7258    0.0203   -0.1084 C   0  0  0  0  0  0  0  0  0  0  0  0
   -3.5742   -1.2503   -0.2290 C   0  0  0  0  0  0  0  0  0  0  0  0
   -4.9474   -0.9769   -0.6237 N   0  0  0  0  0  0  0  0  0  0  0  0
   -5.7643   -2.0196   -0.9400 C   0  0  0  0  0  0  0  0  0  0  0  0
   -5.4453   -3.1854   -1.0781 O   0  0  0  0  0  0  0  0  0  0  0  0
   -7.1017   -1.5582   -1.0646 N   0  0  0  0  0  0  0  0  0  0  0  0
   -8.1946   -2.4008   -1.2286 C   0  0  0  0  0  0  0  0  0  0  0  0
   -8.2362   -3.7731   -1.3233 C   0  0  0  0  0  0  0  0  0  0  0  0
   -9.6027   -4.0936   -1.4448 C   0  0  0  0  0  0  0  0  0  0  0  0
  -10.3785   -3.0084   -1.4349 N   0  0  0  0  0  0  0  0  0  0  0  0
   -9.5054   -1.9980   -1.3040 N   0  0  0  0  0  0  0  0  0  0  0  0
   -4.6851    3.7054    3.3234 H   0  0  0  0  0  0  0  0  0  0  0  0
   -4.2250    1.4028    4.1124 H   0  0  0  0  0  0  0  0  0  0  0  0
   -3.3110   -0.2861    2.5710 H   0  0  0  0  0  0  0  0  0  0  0  0
   -3.3231    2.6497   -0.6035 H   0  0  0  0  0  0  0  0  0  0  0  0
   -4.2185    4.3247    0.9671 H   0  0  0  0  0  0  0  0  0  0  0  0
   -1.7146   -0.2451    0.2213 H   0  0  0  0  0  0  0  0  0  0  0  0
   -2.6247    0.4686   -1.1046 H   0  0  0  0  0  0  0  0  0  0  0  0
   -3.6076   -1.7938    0.7231 H   0  0  0  0  0  0  0  0  0  0  0  0
   -3.1258   -1.9267   -0.9679 H   0  0  0  0  0  0  0  0  0  0  0  0
   -5.3569   -0.1353   -0.2435 H   0  0  0  0  0  0  0  0  0  0  0  0
   -7.2652   -0.5648   -1.0226 H   0  0  0  0  0  0  0  0  0  0  0  0
   -7.4151   -4.4757   -1.3063 H   0  0  0  0  0  0  0  0  0  0  0  0
  -10.0601   -5.0717   -1.5375 H   0  0  0  0  0  0  0  0  0  0  0  0
   -9.8849   -1.0599   -1.2607 H   0  0  0  0  0  0  0  0  0  0  0  0
  1  2  2  0  0  0  0
  1  6  1  0  0  0  0
  1 18  1  0  0  0  0
  2  3  1  0  0  0  0
  2 19  1  0  0  0  0
  3  4  2  0  0  0  0
  3 20  1  0  0  0  0
  4  5  1  0  0  0  0
  4  7  1  0  0  0  0
  5  6  2  0  0  0  0
  5 21  1  0  0  0  0
  6 22  1  0  0  0  0
  7  8  1  0  0  0  0
  7 23  1  0  0  0  0
  7 24  1  0  0  0  0
  8  9  1  0  0  0  0
  8 25  1  0  0  0  0
  8 26  1  0  0  0  0
  9 10  1  0  0  0  0
  9 27  1  0  0  0  0
 10 11  2  0  0  0  0
 10 12  1  0  0  0  0
 12 13  1  0  0  0  0
 12 28  1  0  0  0  0
 13 14  2  0  0  0  0
 13 17  1  0  0  0  0
 14 15  1  0  0  0  0
 14 29  1  0  0  0  0
 15 16  2  0  0  0  0
 15 30  1  0  0  0  0
 16 17  1  0  0  0  0
 17 31  1  0  0  0  0
M  END
