
 OpenBabel10072620103D

 47 50  0  0  0  0  0  0  0  0999 V2000
   -5.5563    2.1428    5.2437 C   0  0  0  0  0  0  0  0  0  0  0  0
   -6.0969    3.1293    4.4148 C   0  0  0  0  0  0  0  0  0  0  0  0
   -5.9898    3.0334    3.0206 C   0  0  0  0  0  0  0  0  0  0  0  0
   -5.3312    1.9235    2.4710 C   0  0  0  0  0  0  0  0  0  0  0  0
   -4.8070    0.9575    3.3211 C   0  0  0  0  0  0  0  0  0  0  0  0
   -4.8957    1.0288    4.7129 C   0  0  0  0  0  0  0  0  0  0  0  0
   -4.2499    0.0306    2.4781 N   0  0  0  0  0  0  0  0  0  0  0  0
   -4.4347    0.4572    1.1840 C   0  0  0  0  0  0  0  0  0  0  0  0
   -5.0944    1.5985    1.1564 N   0  0  0  0  0  0  0  0  0  0  0  0
   -3.9178   -0.2887   -0.0025 C   0  0  0  0  0  0  0  0  0  0  0  0
   -4.4278   -1.7266   -0.0874 C   0  0  0  0  0  0  0  0  0  0  0  0
   -5.8729   -1.8068   -0.1834 N   0  0  0  0  0  0  0  0  0  0  0  0
   -6.6073   -2.6730    0.5893 C   0  0  0  0  0  0  0  0  0  0  0  0
   -6.1111   -3.4529    1.3989 O   0  0  0  0  0  0  0  0  0  0  0  0
   -8.0865   -2.7186    0.3019 C   0  0  0  0  0  0  0  0  0  0  0  0
   -8.7347   -1.5516    0.1255 C   0  0  0  0  0  0  0  0  0  0  0  0
  -10.1500   -1.4039    0.0956 C   0  0  0  0  0  0  0  0  0  0  0  0
  -10.9041   -0.4357   -0.5588 C   0  0  0  0  0  0  0  0  0  0  0  0
  -12.2681   -0.6706   -0.2651 C   0  0  0  0  0  0  0  0  0  0  0  0
  -12.2886   -1.7602    0.5656 C   0  0  0  0  0  0  0  0  0  0  0  0
  -11.0293   -2.1981    0.8017 O   0  0  0  0  0  0  0  0  0  0  0  0
   -8.6254   -3.9896    0.3531 N   0  0  0  0  0  0  0  0  0  0  0  0
   -9.6200   -4.5026   -0.4604 C   0  0  0  0  0  0  0  0  0  0  0  0
  -10.0848   -3.9172   -1.4351 O   0  0  0  0  0  0  0  0  0  0  0  0
  -10.0060   -5.8594   -0.1201 C   0  0  0  0  0  0  0  0  0  0  0  0
  -10.9673   -6.6915   -0.6649 C   0  0  0  0  0  0  0  0  0  0  0  0
  -10.9089   -7.9104    0.0539 C   0  0  0  0  0  0  0  0  0  0  0  0
   -9.9147   -7.7525    0.9915 C   0  0  0  0  0  0  0  0  0  0  0  0
   -9.3576   -6.5156    0.8943 O   0  0  0  0  0  0  0  0  0  0  0  0
   -9.3889   -9.0475    2.2276 Br  0  0  0  0  0  0  0  0  0  0  0  0
   -5.6513    2.2410    6.3234 H   0  0  0  0  0  0  0  0  0  0  0  0
   -6.6077    3.9825    4.8548 H   0  0  0  0  0  0  0  0  0  0  0  0
   -6.4046    3.7969    2.3724 H   0  0  0  0  0  0  0  0  0  0  0  0
   -4.4775    0.2625    5.3563 H   0  0  0  0  0  0  0  0  0  0  0  0
   -3.7899   -0.8213    2.7655 H   0  0  0  0  0  0  0  0  0  0  0  0
   -2.8219   -0.2960    0.0301 H   0  0  0  0  0  0  0  0  0  0  0  0
   -4.2074    0.2537   -0.9112 H   0  0  0  0  0  0  0  0  0  0  0  0
   -4.0751   -2.3079    0.7711 H   0  0  0  0  0  0  0  0  0  0  0  0
   -4.0283   -2.2057   -0.9882 H   0  0  0  0  0  0  0  0  0  0  0  0
   -6.3253   -1.3190   -0.9468 H   0  0  0  0  0  0  0  0  0  0  0  0
   -8.1795   -0.6172    0.1137 H   0  0  0  0  0  0  0  0  0  0  0  0
  -10.5050    0.3465   -1.1893 H   0  0  0  0  0  0  0  0  0  0  0  0
  -13.1264   -0.1160   -0.6151 H   0  0  0  0  0  0  0  0  0  0  0  0
  -13.0758   -2.3173    1.0533 H   0  0  0  0  0  0  0  0  0  0  0  0
   -8.0745   -4.6801    0.8598 H   0  0  0  0  0  0  0  0  0  0  0  0
  -11.6276   -6.4326   -1.4825 H   0  0  0  0  0  0  0  0  0  0  0  0
  -11.5177   -8.7914   -0.0971 H   0  0  0  0  0  0  0  0  0  0  0  0
  1  2  2  0  0  0  0
  1  6  1  0  0  0  0
  1 31  1  0  0  0  0
  2  3  1  0  0  0  0
  2 32  1  0  0  0  0
  3  4  2  0  0  0  0
  3 33  1  0  0  0  0
  4  5  1  0  0  0  0
  4  9  1  0  0  0  0
  5  6  2  0  0  0  0
  5  7  1  0  0  0  0
  6 34  1  0  0  0  0
  7  8  1  0  0  0  0
  7 35  1  0  0  0  0
  8  9  2  0  0  0  0
  8 10  1  0  0  0  0
 10 11  1  0  0  0  0
 10 36  1  0  0  0  0
 10 37  1  0  0  0  0
 11 12  1  0  0  0  0
 11 38  1  0  0  0  0
 11 39  1  0  0  0  0
 12 13  1  0  0  0  0
 12 40  1  0  0  0  0
 13 14  2  0  0  0  0
 13 15  1  0  0  0  0
 15 16  2  0  0  0  0
 15 22  1  0  0  0  0
 16 17  1  0  0  0  0
 16 41  1  0  0  0  0
 17 18  2  0  0  0  0
 17 21  1  0  0  0  0
 18 19  1  0  0  0  0
 18 42  1  0  0  0  0
 19 20  2  0  0  0  0
 19 43  1  0  0  0  0
 20 21  1  0  0  0  0
 20 44  1  0  0  0  0
 22 23  1  0  0  0  0
 22 45  1  0  0  0  0
 23 24  2  0  0  0  0
 23 25  1  0  0  0  0
 25 26  2  0  0  0  0
 25 29  1  0  0  0  0
 26 27  1  0  0  0  0
 26 46  1  0  0  0  0
 27 28  2  0  0  0  0
 27 47  1  0  0  0  0
 28 29  1  0  0  0  0
 28 30  1  0  0  0  0
M  END
