
 OpenBabel10072619563D

 92 95  0  0  0  0  0  0  0  0999 V2000
   -4.2612    0.0919   -6.8417 C   0  0  0  0  0  0  0  0  0  0  0  0
   -4.9392   -0.9172   -6.0538 N   0  0  0  0  0  0  0  0  0  0  0  0
   -4.3655   -1.5351   -4.9721 C   0  0  0  0  0  0  0  0  0  0  0  0
   -5.2332   -2.4860   -4.5045 C   0  0  0  0  0  0  0  0  0  0  0  0
   -6.3638   -2.4576   -5.3574 C   0  0  0  0  0  0  0  0  0  0  0  0
   -6.1977   -1.4419   -6.2925 C   0  0  0  0  0  0  0  0  0  0  0  0
   -7.1143   -0.9727   -7.3069 C   0  0  0  0  0  0  0  0  0  0  0  0
   -7.0876    0.1543   -7.8023 O   0  0  0  0  0  0  0  0  0  0  0  0
   -8.0992   -1.8633   -7.6786 N   0  0  0  0  0  0  0  0  0  0  0  0
   -9.0218   -1.5848   -8.7601 C   0  0  0  0  0  0  0  0  0  0  0  0
  -10.3767   -1.0764   -8.2822 C   0  0  0  0  0  0  0  0  0  0  0  0
  -10.3757    0.1987   -7.5094 C   0  0  0  0  0  0  0  0  0  0  0  0
  -11.3856    0.4030   -6.6863 N   0  3  0  0  0  0  0  0  0  0  0  0
   -9.4348    1.1011   -7.6408 N   0  0  0  0  0  0  0  0  0  0  0  0
   -5.0966   -3.3255   -3.4185 N   0  0  0  0  0  0  0  0  0  0  0  0
   -4.0729   -3.3151   -2.4845 C   0  0  0  0  0  0  0  0  0  0  0  0
   -3.1003   -2.5691   -2.5319 O   0  0  0  0  0  0  0  0  0  0  0  0
   -4.2763   -4.2645   -1.3871 C   0  0  0  0  0  0  0  0  0  0  0  0
   -5.3044   -5.1787   -1.1900 C   0  0  0  0  0  0  0  0  0  0  0  0
   -5.0968   -5.8809    0.0187 C   0  0  0  0  0  0  0  0  0  0  0  0
   -3.9397   -5.3777    0.5633 C   0  0  0  0  0  0  0  0  0  0  0  0
   -3.4498   -4.4071   -0.2840 N   0  0  0  0  0  0  0  0  0  0  0  0
   -2.2530   -3.6335   -0.0223 C   0  0  0  0  0  0  0  0  0  0  0  0
   -5.8782   -6.8676    0.6017 N   0  0  0  0  0  0  0  0  0  0  0  0
   -7.0649   -7.3395    0.0501 C   0  0  0  0  0  0  0  0  0  0  0  0
   -7.5071   -6.9806   -1.0385 O   0  0  0  0  0  0  0  0  0  0  0  0
   -7.7165   -8.2187    0.9096 N   0  0  0  0  0  0  0  0  0  0  0  0
   -8.9452   -8.7975    0.6243 C   0  0  0  0  0  0  0  0  0  0  0  0
   -9.5433   -8.9198   -0.6045 C   0  0  0  0  0  0  0  0  0  0  0  0
  -10.7775   -9.4897   -0.4394 N   0  0  0  0  0  0  0  0  0  0  0  0
  -11.0183   -9.7219    0.9033 C   0  0  0  0  0  0  0  0  0  0  0  0
   -9.8371   -9.3773    1.5612 C   0  0  0  0  0  0  0  0  0  0  0  0
  -12.2944  -10.1895    1.4396 C   0  0  0  0  0  0  0  0  0  0  0  0
  -13.1468  -10.7175    0.7336 O   0  0  0  0  0  0  0  0  0  0  0  0
  -12.4672   -9.8776    2.7779 N   0  0  0  0  0  0  0  0  0  0  0  0
  -13.6387  -10.0150    3.4952 C   0  0  0  0  0  0  0  0  0  0  0  0
  -14.8032  -10.6422    3.1338 C   0  0  0  0  0  0  0  0  0  0  0  0
  -15.7214  -10.4764    4.1391 N   0  0  0  0  0  0  0  0  0  0  0  0
  -15.1799   -9.7018    5.1465 C   0  0  0  0  0  0  0  0  0  0  0  0
  -13.8569   -9.4752    4.7837 C   0  0  0  0  0  0  0  0  0  0  0  0
  -15.8891   -9.2274    6.3095 C   0  0  0  0  0  0  0  0  0  0  0  0
  -17.0962   -8.9960    6.3507 O   0  0  0  0  0  0  0  0  0  0  0  0
  -15.0930   -8.9631    7.4002 N   0  0  0  0  0  0  0  0  0  0  0  0
  -15.6362   -8.5672    8.6789 C   0  0  0  0  0  0  0  0  0  0  0  0
  -15.5449   -7.0671    8.9150 C   0  0  0  0  0  0  0  0  0  0  0  0
  -16.2524   -6.1850    7.9436 C   0  0  0  0  0  0  0  0  0  0  0  0
  -17.2751   -6.5991    7.2327 N   0  3  0  0  0  0  0  0  0  0  0  0
  -15.8137   -4.9465    7.8386 N   0  0  0  0  0  0  0  0  0  0  0  0
  -17.0309  -11.0972    4.1308 C   0  0  0  0  0  0  0  0  0  0  0  0
  -11.6988   -9.7147   -1.5336 C   0  0  0  0  0  0  0  0  0  0  0  0
   -3.2556    0.2477   -6.4397 H   0  0  0  0  0  0  0  0  0  0  0  0
   -4.8266    1.0236   -6.7798 H   0  0  0  0  0  0  0  0  0  0  0  0
   -4.1879   -0.2646   -7.8724 H   0  0  0  0  0  0  0  0  0  0  0  0
   -3.3803   -1.2470   -4.6259 H   0  0  0  0  0  0  0  0  0  0  0  0
   -7.2371   -3.0876   -5.2615 H   0  0  0  0  0  0  0  0  0  0  0  0
   -7.9818   -2.8244   -7.3815 H   0  0  0  0  0  0  0  0  0  0  0  0
   -9.1572   -2.5272   -9.3011 H   0  0  0  0  0  0  0  0  0  0  0  0
   -8.5682   -0.8758   -9.4588 H   0  0  0  0  0  0  0  0  0  0  0  0
  -10.8512   -1.8610   -7.6778 H   0  0  0  0  0  0  0  0  0  0  0  0
  -11.0189   -0.9310   -9.1604 H   0  0  0  0  0  0  0  0  0  0  0  0
  -12.1182   -0.2867   -6.5643 H   0  0  0  0  0  0  0  0  0  0  0  0
  -11.4559    1.2451   -6.1312 H   0  0  0  0  0  0  0  0  0  0  0  0
   -8.5725    0.9159   -8.1673 H   0  0  0  0  0  0  0  0  0  0  0  0
   -9.4201    1.9747   -7.1304 H   0  0  0  0  0  0  0  0  0  0  0  0
   -5.8537   -3.9754   -3.2799 H   0  0  0  0  0  0  0  0  0  0  0  0
   -6.1420   -5.3361   -1.8525 H   0  0  0  0  0  0  0  0  0  0  0  0
   -3.4213   -5.6142    1.4839 H   0  0  0  0  0  0  0  0  0  0  0  0
   -1.8653   -3.8834    0.9682 H   0  0  0  0  0  0  0  0  0  0  0  0
   -2.5092   -2.5721   -0.0469 H   0  0  0  0  0  0  0  0  0  0  0  0
   -1.5106   -3.8819   -0.7829 H   0  0  0  0  0  0  0  0  0  0  0  0
   -5.5223   -7.2852    1.4474 H   0  0  0  0  0  0  0  0  0  0  0  0
   -7.4113   -8.2525    1.8698 H   0  0  0  0  0  0  0  0  0  0  0  0
   -9.1988   -8.6349   -1.5909 H   0  0  0  0  0  0  0  0  0  0  0  0
   -9.6565   -9.4655    2.6231 H   0  0  0  0  0  0  0  0  0  0  0  0
  -11.7299   -9.3695    3.2405 H   0  0  0  0  0  0  0  0  0  0  0  0
  -15.0602  -11.1956    2.2395 H   0  0  0  0  0  0  0  0  0  0  0  0
  -13.1393   -8.9090    5.3610 H   0  0  0  0  0  0  0  0  0  0  0  0
  -14.1338   -9.2827    7.3616 H   0  0  0  0  0  0  0  0  0  0  0  0
  -15.0485   -9.0936    9.4384 H   0  0  0  0  0  0  0  0  0  0  0  0
  -16.6671   -8.9191    8.7699 H   0  0  0  0  0  0  0  0  0  0  0  0
  -14.4824   -6.7911    8.9311 H   0  0  0  0  0  0  0  0  0  0  0  0
  -15.9397   -6.8474    9.9138 H   0  0  0  0  0  0  0  0  0  0  0  0
  -17.5632   -7.5847    7.2072 H   0  0  0  0  0  0  0  0  0  0  0  0
  -17.7695   -6.0116    6.5743 H   0  0  0  0  0  0  0  0  0  0  0  0
  -15.0214   -4.6207    8.3832 H   0  0  0  0  0  0  0  0  0  0  0  0
  -16.2379   -4.2772    7.2088 H   0  0  0  0  0  0  0  0  0  0  0  0
  -17.1067  -11.7620    3.2648 H   0  0  0  0  0  0  0  0  0  0  0  0
  -17.7876  -10.3141    4.0608 H   0  0  0  0  0  0  0  0  0  0  0  0
  -17.1462  -11.6862    5.0445 H   0  0  0  0  0  0  0  0  0  0  0  0
  -11.2301   -9.4018   -2.4704 H   0  0  0  0  0  0  0  0  0  0  0  0
  -12.5961   -9.1156   -1.3655 H   0  0  0  0  0  0  0  0  0  0  0  0
  -11.9293  -10.7797   -1.5858 H   0  0  0  0  0  0  0  0  0  0  0  0
  1  2  1  0  0  0  0
  1 51  1  0  0  0  0
  1 52  1  0  0  0  0
  1 53  1  0  0  0  0
  2  3  1  0  0  0  0
  2  6  1  0  0  0  0
  3  4  2  0  0  0  0
  3 54  1  0  0  0  0
  4  5  1  0  0  0  0
  4 15  1  0  0  0  0
  5  6  2  0  0  0  0
  5 55  1  0  0  0  0
  6  7  1  0  0  0  0
  7  8  2  0  0  0  0
  7  9  1  0  0  0  0
  9 10  1  0  0  0  0
  9 56  1  0  0  0  0
 10 11  1  0  0  0  0
 10 57  1  0  0  0  0
 10 58  1  0  0  0  0
 11 12  1  0  0  0  0
 11 59  1  0  0  0  0
 11 60  1  0  0  0  0
 12 13  2  0  0  0  0
 12 14  1  0  0  0  0
 13 61  1  0  0  0  0
 13 62  1  0  0  0  0
 14 63  1  0  0  0  0
 14 64  1  0  0  0  0
 15 16  1  0  0  0  0
 15 65  1  0  0  0  0
 16 17  2  0  0  0  0
 16 18  1  0  0  0  0
 18 19  2  0  0  0  0
 18 22  1  0  0  0  0
 19 20  1  0  0  0  0
 19 66  1  0  0  0  0
 20 21  2  0  0  0  0
 20 24  1  0  0  0  0
 21 22  1  0  0  0  0
 21 67  1  0  0  0  0
 22 23  1  0  0  0  0
 23 68  1  0  0  0  0
 23 69  1  0  0  0  0
 23 70  1  0  0  0  0
 24 25  1  0  0  0  0
 24 71  1  0  0  0  0
 25 26  2  0  0  0  0
 25 27  1  0  0  0  0
 27 28  1  0  0  0  0
 27 72  1  0  0  0  0
 28 29  2  0  0  0  0
 28 32  1  0  0  0  0
 29 30  1  0  0  0  0
 29 73  1  0  0  0  0
 30 31  1  0  0  0  0
 30 50  1  0  0  0  0
 31 32  2  0  0  0  0
 31 33  1  0  0  0  0
 32 74  1  0  0  0  0
 33 34  2  0  0  0  0
 33 35  1  0  0  0  0
 35 36  1  0  0  0  0
 35 75  1  0  0  0  0
 36 37  2  0  0  0  0
 36 40  1  0  0  0  0
 37 38  1  0  0  0  0
 37 76  1  0  0  0  0
 38 39  1  0  0  0  0
 38 49  1  0  0  0  0
 39 40  2  0  0  0  0
 39 41  1  0  0  0  0
 40 77  1  0  0  0  0
 41 42  2  0  0  0  0
 41 43  1  0  0  0  0
 43 44  1  0  0  0  0
 43 78  1  0  0  0  0
 44 45  1  0  0  0  0
 44 79  1  0  0  0  0
 44 80  1  0  0  0  0
 45 46  1  0  0  0  0
 45 81  1  0  0  0  0
 45 82  1  0  0  0  0
 46 47  2  0  0  0  0
 46 48  1  0  0  0  0
 47 83  1  0  0  0  0
 47 84  1  0  0  0  0
 48 85  1  0  0  0  0
 48 86  1  0  0  0  0
 49 87  1  0  0  0  0
 49 88  1  0  0  0  0
 49 89  1  0  0  0  0
 50 90  1  0  0  0  0
 50 91  1  0  0  0  0
 50 92  1  0  0  0  0
M  CHG  2  13   1  47   1
M  END
