
 OpenBabel10072620013D

 77 77  0  0  1  0  0  0  0  0999 V2000
    1.7365   -0.3491    0.1047 C   0  0  0  0  0  0  0  0  0  0  0  0
    1.0759    0.8635    0.0410 C   0  0  0  0  0  0  0  0  0  0  0  0
   -0.3020    0.8519   -0.1328 C   0  0  0  0  0  0  0  0  0  0  0  0
   -1.0381   -0.2860   -0.1499 N   0  3  0  0  0  0  0  0  0  0  0  0
   -0.4039   -1.5116   -0.1349 C   0  0  0  0  0  0  0  0  0  0  0  0
    1.0163   -1.5439   -0.0006 C   0  0  0  0  0  0  0  0  0  0  0  0
    1.8250   -2.8311   -0.0494 C   0  0  0  0  0  0  0  0  0  0  0  0
    2.1913   -3.1911   -1.4982 C   0  0  0  0  0  0  0  0  0  0  0  0
    3.0441   -4.4635   -1.6142 C   0  0  3  0  0  0  0  0  0  0  0  0
    2.2910   -5.7158   -1.1339 C   0  0  0  0  0  0  0  0  0  0  0  0
    1.0881   -5.7668   -0.9217 O   0  0  0  0  0  0  0  0  0  0  0  0
    3.1026   -6.7918   -1.0030 O   0  0  0  0  0  0  0  0  0  0  0  0
    3.4327   -4.6406   -3.0268 N   0  0  0  0  0  0  0  0  0  0  0  0
   -1.1805   -2.8099   -0.2961 C   0  0  0  0  0  0  0  0  0  0  0  0
   -1.5875   -3.4250    1.0493 C   0  0  0  0  0  0  0  0  0  0  0  0
   -2.3417   -4.7557    0.8525 C   0  0  0  0  0  0  0  0  0  0  0  0
   -3.1583   -5.1751    2.0897 C   0  0  3  0  0  0  0  0  0  0  0  0
   -4.3475   -4.2209    2.3135 C   0  0  0  0  0  0  0  0  0  0  0  0
   -4.6595   -3.2997    1.5720 O   0  0  0  0  0  0  0  0  0  0  0  0
   -5.0185   -4.4941    3.4585 O   0  0  0  0  0  0  0  0  0  0  0  0
   -3.6539   -6.5531    1.9200 N   0  0  0  0  0  0  0  0  0  0  0  0
   -2.5298   -0.1645   -0.3082 C   0  0  0  0  0  0  0  0  0  0  0  0
   -3.2035    0.9139    0.5565 C   0  0  0  0  0  0  0  0  0  0  0  0
   -3.2828    2.3685    0.0491 C   0  0  0  0  0  0  0  0  0  0  0  0
   -3.4661    2.5766   -1.4620 C   0  0  0  0  0  0  0  0  0  0  0  0
   -4.7586    1.9784   -2.0381 C   0  0  3  0  0  0  0  0  0  0  0  0
   -5.9673    2.8346   -1.6367 C   0  0  0  0  0  0  0  0  0  0  0  0
   -6.4073    2.8817   -0.4976 O   0  0  0  0  0  0  0  0  0  0  0  0
   -6.4851    3.5720   -2.6423 O   0  0  0  0  0  0  0  0  0  0  0  0
   -4.6285    1.8563   -3.5029 N   0  0  0  0  0  0  0  0  0  0  0  0
    1.8239    2.1758    0.0982 C   0  0  0  0  0  0  0  0  0  0  0  0
    1.4635    3.0048    1.3453 C   0  0  0  0  0  0  0  0  0  0  0  0
    1.8529    4.4843    1.1854 C   0  0  3  0  0  0  0  0  0  0  0  0
    0.9346    5.1671    0.1517 C   0  0  0  0  0  0  0  0  0  0  0  0
   -0.0485    4.6438   -0.3514 O   0  0  0  0  0  0  0  0  0  0  0  0
    1.3302    6.4242   -0.1563 O   0  0  0  0  0  0  0  0  0  0  0  0
    1.7439    5.1572    2.4894 N   0  0  0  0  0  0  0  0  0  0  0  0
    2.8232   -0.3722    0.1956 H   0  0  0  0  0  0  0  0  0  0  0  0
   -0.8193    1.7905   -0.2740 H   0  0  0  0  0  0  0  0  0  0  0  0
    1.2805   -3.6369    0.4495 H   0  0  0  0  0  0  0  0  0  0  0  0
    2.7418   -2.7044    0.5416 H   0  0  0  0  0  0  0  0  0  0  0  0
    2.7432   -2.3496   -1.9396 H   0  0  0  0  0  0  0  0  0  0  0  0
    1.2790   -3.3007   -2.0986 H   0  0  0  0  0  0  0  0  0  0  0  0
    3.9450   -4.3448   -1.0010 H   0  0  0  0  0  0  0  0  0  0  0  0
    4.0422   -6.6057   -1.1989 H   0  0  0  0  0  0  0  0  0  0  0  0
    2.5897   -4.7141   -3.6047 H   0  0  0  0  0  0  0  0  0  0  0  0
    3.9264   -5.5203   -3.1748 H   0  0  0  0  0  0  0  0  0  0  0  0
   -0.5861   -3.5358   -0.8574 H   0  0  0  0  0  0  0  0  0  0  0  0
   -2.0580   -2.6574   -0.9346 H   0  0  0  0  0  0  0  0  0  0  0  0
   -2.1931   -2.7042    1.6073 H   0  0  0  0  0  0  0  0  0  0  0  0
   -0.7006   -3.6134    1.6682 H   0  0  0  0  0  0  0  0  0  0  0  0
   -1.6025   -5.5326    0.6134 H   0  0  0  0  0  0  0  0  0  0  0  0
   -3.0097   -4.6803   -0.0158 H   0  0  0  0  0  0  0  0  0  0  0  0
   -2.5182   -5.1340    2.9786 H   0  0  0  0  0  0  0  0  0  0  0  0
   -4.6145   -5.2187    3.9758 H   0  0  0  0  0  0  0  0  0  0  0  0
   -4.1555   -6.6414    1.0328 H   0  0  0  0  0  0  0  0  0  0  0  0
   -4.3258   -6.8223    2.6363 H   0  0  0  0  0  0  0  0  0  0  0  0
   -2.9688   -1.1079    0.0212 H   0  0  0  0  0  0  0  0  0  0  0  0
   -2.7204   -0.0553   -1.3787 H   0  0  0  0  0  0  0  0  0  0  0  0
   -2.7607    0.9133    1.5605 H   0  0  0  0  0  0  0  0  0  0  0  0
   -4.2450    0.5910    0.6928 H   0  0  0  0  0  0  0  0  0  0  0  0
   -2.3895    2.9162    0.3668 H   0  0  0  0  0  0  0  0  0  0  0  0
   -4.0954    2.8698    0.5898 H   0  0  0  0  0  0  0  0  0  0  0  0
   -2.5903    2.1693   -1.9830 H   0  0  0  0  0  0  0  0  0  0  0  0
   -3.4544    3.6579   -1.6609 H   0  0  0  0  0  0  0  0  0  0  0  0
   -4.9380    0.9671   -1.6595 H   0  0  0  0  0  0  0  0  0  0  0  0
   -5.9983    3.4379   -3.4749 H   0  0  0  0  0  0  0  0  0  0  0  0
   -4.2370    2.6770   -3.9601 H   0  0  0  0  0  0  0  0  0  0  0  0
   -5.4977    1.5531   -3.9457 H   0  0  0  0  0  0  0  0  0  0  0  0
    1.6109    2.7187   -0.8309 H   0  0  0  0  0  0  0  0  0  0  0  0
    2.9079    2.0003    0.0952 H   0  0  0  0  0  0  0  0  0  0  0  0
    1.9777    2.5653    2.2110 H   0  0  0  0  0  0  0  0  0  0  0  0
    0.3891    2.9310    1.5615 H   0  0  0  0  0  0  0  0  0  0  0  0
    2.8875    4.5497    0.8308 H   0  0  0  0  0  0  0  0  0  0  0  0
    2.1432    6.7100    0.3039 H   0  0  0  0  0  0  0  0  0  0  0  0
    0.7807    5.1262    2.8319 H   0  0  0  0  0  0  0  0  0  0  0  0
    1.9924    6.1433    2.4451 H   0  0  0  0  0  0  0  0  0  0  0  0
  1  2  2  0  0  0  0
  1  6  1  0  0  0  0
  1 38  1  0  0  0  0
  2  3  1  0  0  0  0
  2 31  1  0  0  0  0
  3  4  2  0  0  0  0
  3 39  1  0  0  0  0
  4  5  1  0  0  0  0
  4 22  1  0  0  0  0
  5  6  2  0  0  0  0
  5 14  1  0  0  0  0
  6  7  1  0  0  0  0
  7  8  1  0  0  0  0
  7 40  1  0  0  0  0
  7 41  1  0  0  0  0
  8  9  1  0  0  0  0
  8 42  1  0  0  0  0
  8 43  1  0  0  0  0
  9 10  1  0  0  0  0
  9 13  1  0  0  0  0
  9 44  1  0  0  0  0
 10 11  2  0  0  0  0
 10 12  1  0  0  0  0
 12 45  1  0  0  0  0
 13 46  1  0  0  0  0
 13 47  1  0  0  0  0
 14 15  1  0  0  0  0
 14 48  1  0  0  0  0
 14 49  1  0  0  0  0
 15 16  1  0  0  0  0
 15 50  1  0  0  0  0
 15 51  1  0  0  0  0
 16 17  1  0  0  0  0
 16 52  1  0  0  0  0
 16 53  1  0  0  0  0
 17 18  1  0  0  0  0
 17 21  1  0  0  0  0
 17 54  1  0  0  0  0
 18 19  2  0  0  0  0
 18 20  1  0  0  0  0
 20 55  1  0  0  0  0
 21 56  1  0  0  0  0
 21 57  1  0  0  0  0
 22 23  1  0  0  0  0
 22 58  1  0  0  0  0
 22 59  1  0  0  0  0
 23 24  1  0  0  0  0
 23 60  1  0  0  0  0
 23 61  1  0  0  0  0
 24 25  1  0  0  0  0
 24 62  1  0  0  0  0
 24 63  1  0  0  0  0
 25 26  1  0  0  0  0
 25 64  1  0  0  0  0
 25 65  1  0  0  0  0
 26 27  1  0  0  0  0
 26 30  1  0  0  0  0
 26 66  1  0  0  0  0
 27 28  2  0  0  0  0
 27 29  1  0  0  0  0
 29 67  1  0  0  0  0
 30 68  1  0  0  0  0
 30 69  1  0  0  0  0
 31 32  1  0  0  0  0
 31 70  1  0  0  0  0
 31 71  1  0  0  0  0
 32 33  1  0  0  0  0
 32 72  1  0  0  0  0
 32 73  1  0  0  0  0
 33 34  1  0  0  0  0
 33 37  1  0  0  0  0
 33 74  1  0  0  0  0
 34 35  2  0  0  0  0
 34 36  1  0  0  0  0
 36 75  1  0  0  0  0
 37 76  1  0  0  0  0
 37 77  1  0  0  0  0
M  CHG  1   4   1
M  END
