
 OpenBabel10072619483D

 57 59  0  0  0  0  0  0  0  0999 V2000
    3.9771   -3.8588   -5.0663 C   0  0  0  0  0  0  0  0  0  0  0  0
    2.6798   -4.3068   -4.4581 C   0  0  0  0  0  0  0  0  0  0  0  0
    1.8671   -5.2506   -5.1001 C   0  0  0  0  0  0  0  0  0  0  0  0
    0.6446   -5.6450   -4.5386 C   0  0  0  0  0  0  0  0  0  0  0  0
    0.2412   -5.0882   -3.3171 C   0  0  0  0  0  0  0  0  0  0  0  0
    1.0455   -4.1474   -2.6749 C   0  0  0  0  0  0  0  0  0  0  0  0
    2.2598   -3.7617   -3.2384 C   0  0  0  0  0  0  0  0  0  0  0  0
    0.6354   -3.6087   -1.4249 N   0  0  0  0  0  0  0  0  0  0  0  0
    1.4439   -4.0822   -0.0211 S   0  0  0  0  0  0  0  0  0  0  0  0
    2.8640   -3.8388   -0.1689 O   0  0  0  0  0  0  0  0  0  0  0  0
    0.6979   -3.5276    1.0874 O   0  0  0  0  0  0  0  0  0  0  0  0
    1.1893   -5.8418    0.0062 C   0  0  0  0  0  0  0  0  0  0  0  0
    2.1927   -6.6957   -0.4582 C   0  0  0  0  0  0  0  0  0  0  0  0
    2.0102   -8.0807   -0.3935 C   0  0  0  0  0  0  0  0  0  0  0  0
    0.8286   -8.6065    0.1347 C   0  0  0  0  0  0  0  0  0  0  0  0
   -0.1696   -7.7402    0.5963 C   0  0  0  0  0  0  0  0  0  0  0  0
    0.0074   -6.3567    0.5447 C   0  0  0  0  0  0  0  0  0  0  0  0
    0.5297   -9.9325    0.2692 O   0  0  0  0  0  0  0  0  0  0  0  0
    1.5522  -10.8684   -0.0733 C   0  0  0  0  0  0  0  0  0  0  0  0
    1.0775  -12.2867    0.2379 C   0  0  0  0  0  0  0  0  0  0  0  0
    1.8532  -13.2366    0.2970 O   0  0  0  0  0  0  0  0  0  0  0  0
   -0.2889  -12.4014    0.3965 N   0  0  0  0  0  0  0  0  0  0  0  0
   -0.8973  -13.6533    0.7955 C   0  0  0  0  0  0  0  0  0  0  0  0
   -2.4172  -13.6175    0.6442 C   0  0  0  0  0  0  0  0  0  0  0  0
   -3.0253  -14.9795    0.8554 C   0  0  0  0  0  0  0  0  0  0  0  0
   -3.2972  -15.4466    2.1478 C   0  0  0  0  0  0  0  0  0  0  0  0
   -3.8268  -16.7237    2.3408 C   0  0  0  0  0  0  0  0  0  0  0  0
   -4.0902  -17.5434    1.2447 C   0  0  0  0  0  0  0  0  0  0  0  0
   -3.8168  -17.0911   -0.0447 C   0  0  0  0  0  0  0  0  0  0  0  0
   -3.2831  -15.8162   -0.2389 C   0  0  0  0  0  0  0  0  0  0  0  0
   -0.2201   -6.6706   -5.2122 C   0  0  0  0  0  0  0  0  0  0  0  0
    4.2236   -4.4358   -5.9641 H   0  0  0  0  0  0  0  0  0  0  0  0
    4.7951   -3.9919   -4.3505 H   0  0  0  0  0  0  0  0  0  0  0  0
    3.9136   -2.8031   -5.3505 H   0  0  0  0  0  0  0  0  0  0  0  0
    2.1894   -5.6782   -6.0485 H   0  0  0  0  0  0  0  0  0  0  0  0
   -0.6980   -5.4019   -2.8700 H   0  0  0  0  0  0  0  0  0  0  0  0
    2.8795   -3.0229   -2.7340 H   0  0  0  0  0  0  0  0  0  0  0  0
   -0.3613   -3.4705   -1.2746 H   0  0  0  0  0  0  0  0  0  0  0  0
    3.1184   -6.2942   -0.8678 H   0  0  0  0  0  0  0  0  0  0  0  0
    2.8087   -8.7157   -0.7650 H   0  0  0  0  0  0  0  0  0  0  0  0
   -1.0903   -8.1476    1.0092 H   0  0  0  0  0  0  0  0  0  0  0  0
   -0.7673   -5.6976    0.9307 H   0  0  0  0  0  0  0  0  0  0  0  0
    2.4542  -10.6889    0.5240 H   0  0  0  0  0  0  0  0  0  0  0  0
    1.7665  -10.8255   -1.1475 H   0  0  0  0  0  0  0  0  0  0  0  0
   -0.7763  -11.5273    0.5733 H   0  0  0  0  0  0  0  0  0  0  0  0
   -0.6176  -13.8364    1.8400 H   0  0  0  0  0  0  0  0  0  0  0  0
   -0.4546  -14.4579    0.1951 H   0  0  0  0  0  0  0  0  0  0  0  0
   -2.6964  -13.2390   -0.3481 H   0  0  0  0  0  0  0  0  0  0  0  0
   -2.8506  -12.9063    1.3601 H   0  0  0  0  0  0  0  0  0  0  0  0
   -3.0902  -14.8239    3.0148 H   0  0  0  0  0  0  0  0  0  0  0  0
   -4.0271  -17.0843    3.3467 H   0  0  0  0  0  0  0  0  0  0  0  0
   -4.5075  -18.5355    1.3952 H   0  0  0  0  0  0  0  0  0  0  0  0
   -4.0113  -17.7347   -0.8991 H   0  0  0  0  0  0  0  0  0  0  0  0
   -3.0607  -15.4830   -1.2503 H   0  0  0  0  0  0  0  0  0  0  0  0
    0.1480   -6.9162   -6.2141 H   0  0  0  0  0  0  0  0  0  0  0  0
   -1.2420   -6.2915   -5.3194 H   0  0  0  0  0  0  0  0  0  0  0  0
   -0.2376   -7.5907   -4.6190 H   0  0  0  0  0  0  0  0  0  0  0  0
  1  2  1  0  0  0  0
  1 32  1  0  0  0  0
  1 33  1  0  0  0  0
  1 34  1  0  0  0  0
  2  3  2  0  0  0  0
  2  7  1  0  0  0  0
  3  4  1  0  0  0  0
  3 35  1  0  0  0  0
  4  5  2  0  0  0  0
  4 31  1  0  0  0  0
  5  6  1  0  0  0  0
  5 36  1  0  0  0  0
  6  7  2  0  0  0  0
  6  8  1  0  0  0  0
  7 37  1  0  0  0  0
  8  9  1  0  0  0  0
  8 38  1  0  0  0  0
  9 10  2  0  0  0  0
  9 11  2  0  0  0  0
  9 12  1  0  0  0  0
 12 13  2  0  0  0  0
 12 17  1  0  0  0  0
 13 14  1  0  0  0  0
 13 39  1  0  0  0  0
 14 15  2  0  0  0  0
 14 40  1  0  0  0  0
 15 16  1  0  0  0  0
 15 18  1  0  0  0  0
 16 17  2  0  0  0  0
 16 41  1  0  0  0  0
 17 42  1  0  0  0  0
 18 19  1  0  0  0  0
 19 20  1  0  0  0  0
 19 43  1  0  0  0  0
 19 44  1  0  0  0  0
 20 21  2  0  0  0  0
 20 22  1  0  0  0  0
 22 23  1  0  0  0  0
 22 45  1  0  0  0  0
 23 24  1  0  0  0  0
 23 46  1  0  0  0  0
 23 47  1  0  0  0  0
 24 25  1  0  0  0  0
 24 48  1  0  0  0  0
 24 49  1  0  0  0  0
 25 26  2  0  0  0  0
 25 30  1  0  0  0  0
 26 27  1  0  0  0  0
 26 50  1  0  0  0  0
 27 28  2  0  0  0  0
 27 51  1  0  0  0  0
 28 29  1  0  0  0  0
 28 52  1  0  0  0  0
 29 30  2  0  0  0  0
 29 53  1  0  0  0  0
 30 54  1  0  0  0  0
 31 55  1  0  0  0  0
 31 56  1  0  0  0  0
 31 57  1  0  0  0  0
M  END
