
 OpenBabel10072616333D

 46 47  0  0  0  0  0  0  0  0999 V2000
    9.6769   -3.7352    0.8360 C   0  0  0  0  0  0  0  0  0  0  0  0
    8.4231   -3.0576    1.1315 N   0  0  0  0  0  0  0  0  0  0  0  0
    8.1413   -2.8314    2.5436 C   0  0  0  0  0  0  0  0  0  0  0  0
    7.8047   -2.3589    0.0945 C   0  0  0  0  0  0  0  0  0  0  0  0
    8.2027   -2.3449   -1.0654 O   0  0  0  0  0  0  0  0  0  0  0  0
    6.6925   -1.4604    0.4261 C   0  0  0  0  0  0  0  0  0  0  0  0
    5.3980   -1.8630    0.6936 C   0  0  0  0  0  0  0  0  0  0  0  0
    4.3946   -1.0202    1.1057 N   0  0  0  0  0  0  0  0  0  0  0  0
    4.7046    0.2931    1.1548 C   0  0  0  0  0  0  0  0  0  0  0  0
    5.9652    0.7965    0.8629 C   0  0  0  0  0  0  0  0  0  0  0  0
    6.9744   -0.0944    0.5041 C   0  0  0  0  0  0  0  0  0  0  0  0
    4.8818   -3.5564    0.5339 S   0  0  0  0  0  0  0  0  0  0  0  0
    5.4461   -4.1475   -0.6578 O   0  0  0  0  0  0  0  0  0  0  0  0
    5.0720   -4.1731    1.8379 O   0  0  0  0  0  0  0  0  0  0  0  0
    3.2129   -3.4665    0.3493 N   0  0  0  0  0  0  0  0  0  0  0  0
    2.5883   -2.6712   -0.6183 C   0  0  0  0  0  0  0  0  0  0  0  0
    3.2123   -2.1642   -1.5344 O   0  0  0  0  0  0  0  0  0  0  0  0
    1.2559   -2.5517   -0.3703 N   0  0  0  0  0  0  0  0  0  0  0  0
    0.3680   -1.7212   -1.0284 C   0  0  0  0  0  0  0  0  0  0  0  0
    0.7574   -0.9378   -2.0329 N   0  0  0  0  0  0  0  0  0  0  0  0
   -0.1710   -0.1276   -2.5656 C   0  0  0  0  0  0  0  0  0  0  0  0
   -1.4602   -0.0488   -2.1168 C   0  0  0  0  0  0  0  0  0  0  0  0
   -1.7588   -0.9037   -1.0894 C   0  0  0  0  0  0  0  0  0  0  0  0
   -0.8744   -1.7473   -0.5267 N   0  0  0  0  0  0  0  0  0  0  0  0
   -3.0601   -0.8522   -0.6255 O   0  0  0  0  0  0  0  0  0  0  0  0
   -3.3258   -1.7868    0.4184 C   0  0  0  0  0  0  0  0  0  0  0  0
    0.1593    0.7008   -3.6202 O   0  0  0  0  0  0  0  0  0  0  0  0
    1.4873    0.4956   -4.0952 C   0  0  0  0  0  0  0  0  0  0  0  0
   10.5108   -3.0448    1.0005 H   0  0  0  0  0  0  0  0  0  0  0  0
    9.7065   -4.0787   -0.2013 H   0  0  0  0  0  0  0  0  0  0  0  0
    9.7848   -4.5985    1.4974 H   0  0  0  0  0  0  0  0  0  0  0  0
    8.3901   -3.7271    3.1193 H   0  0  0  0  0  0  0  0  0  0  0  0
    7.0905   -2.5921    2.7103 H   0  0  0  0  0  0  0  0  0  0  0  0
    8.7505   -1.9912    2.8849 H   0  0  0  0  0  0  0  0  0  0  0  0
    3.8898    0.9530    1.4442 H   0  0  0  0  0  0  0  0  0  0  0  0
    6.1690    1.8607    0.9202 H   0  0  0  0  0  0  0  0  0  0  0  0
    7.9761    0.2696    0.2814 H   0  0  0  0  0  0  0  0  0  0  0  0
    2.7383   -3.7038    1.2090 H   0  0  0  0  0  0  0  0  0  0  0  0
    0.8301   -3.0571    0.3828 H   0  0  0  0  0  0  0  0  0  0  0  0
   -2.1976    0.6161   -2.5402 H   0  0  0  0  0  0  0  0  0  0  0  0
   -4.3946   -1.7260    0.6528 H   0  0  0  0  0  0  0  0  0  0  0  0
   -2.7648   -1.5275    1.3261 H   0  0  0  0  0  0  0  0  0  0  0  0
   -3.1155   -2.8161    0.0984 H   0  0  0  0  0  0  0  0  0  0  0  0
    1.6413    1.1664   -4.9464 H   0  0  0  0  0  0  0  0  0  0  0  0
    1.6273   -0.5318   -4.4483 H   0  0  0  0  0  0  0  0  0  0  0  0
    2.2246    0.7498   -3.3264 H   0  0  0  0  0  0  0  0  0  0  0  0
  1  2  1  0  0  0  0
  1 29  1  0  0  0  0
  1 30  1  0  0  0  0
  1 31  1  0  0  0  0
  2  3  1  0  0  0  0
  2  4  1  0  0  0  0
  3 32  1  0  0  0  0
  3 33  1  0  0  0  0
  3 34  1  0  0  0  0
  4  5  2  0  0  0  0
  4  6  1  0  0  0  0
  6  7  2  0  0  0  0
  6 11  1  0  0  0  0
  7  8  1  0  0  0  0
  7 12  1  0  0  0  0
  8  9  2  0  0  0  0
  9 10  1  0  0  0  0
  9 35  1  0  0  0  0
 10 11  2  0  0  0  0
 10 36  1  0  0  0  0
 11 37  1  0  0  0  0
 12 13  2  0  0  0  0
 12 14  2  0  0  0  0
 12 15  1  0  0  0  0
 15 16  1  0  0  0  0
 15 38  1  0  0  0  0
 16 17  2  0  0  0  0
 16 18  1  0  0  0  0
 18 19  1  0  0  0  0
 18 39  1  0  0  0  0
 19 20  2  0  0  0  0
 19 24  1  0  0  0  0
 20 21  1  0  0  0  0
 21 22  2  0  0  0  0
 21 27  1  0  0  0  0
 22 23  1  0  0  0  0
 22 40  1  0  0  0  0
 23 24  2  0  0  0  0
 23 25  1  0  0  0  0
 25 26  1  0  0  0  0
 26 41  1  0  0  0  0
 26 42  1  0  0  0  0
 26 43  1  0  0  0  0
 27 28  1  0  0  0  0
 28 44  1  0  0  0  0
 28 45  1  0  0  0  0
 28 46  1  0  0  0  0
M  END
