
 OpenBabel10072620083D

 49 51  0  0  1  0  0  0  0  0999 V2000
    0.4004   -0.0186    3.8169 C   0  0  0  0  0  0  0  0  0  0  0  0
    0.3847   -0.0185    2.2889 C   0  0  3  0  0  0  0  0  0  0  0  0
    1.0438    1.2343    1.7264 C   0  0  0  0  0  0  0  0  0  0  0  0
    1.1240    1.2238    0.2133 C   0  0  0  0  0  0  0  0  0  0  0  0
    1.7590    0.0030   -0.2630 N   0  0  0  0  0  0  0  0  0  0  0  0
    1.1320   -1.2181    0.2018 C   0  0  0  0  0  0  0  0  0  0  0  0
    1.0661   -1.2506    1.7168 C   0  0  0  0  0  0  0  0  0  0  0  0
    2.9374    0.0088   -1.1417 C   0  0  0  0  0  0  0  0  0  0  0  0
    2.8599   -0.5617   -2.3270 C   0  0  0  0  0  0  0  0  0  0  0  0
    3.8829   -0.5889   -3.1642 C   0  0  0  0  0  0  0  0  0  0  0  0
    3.7592   -1.1515   -4.2971 O   0  0  0  0  0  0  0  0  0  0  0  0
    5.0318   -0.0338   -2.8277 N   0  0  0  0  0  0  0  0  0  0  0  0
    6.1392   -0.0271   -3.6682 C   0  0  0  0  0  0  0  0  0  0  0  0
    7.0951    0.9838   -3.4068 C   0  0  0  0  0  0  0  0  0  0  0  0
    7.2909    1.3481   -2.0943 C   0  0  0  0  0  0  0  0  0  0  0  0
    6.3518    1.1557   -1.2121 C   0  0  0  0  0  0  0  0  0  0  0  0
    5.1612    0.5844   -1.5679 C   0  0  0  0  0  0  0  0  0  0  0  0
    4.0568    0.5889   -0.7231 N   0  0  0  0  0  0  0  0  0  0  0  0
    6.5823    1.5717    0.2316 C   0  0  0  0  0  0  0  0  0  0  0  0
    1.5505   -1.2102   -2.7457 C   0  0  0  0  0  0  0  0  0  0  0  0
    1.5133   -2.5371   -3.0435 C   0  0  0  0  0  0  0  0  0  0  0  0
    2.7811   -3.3712   -2.9573 C   0  0  0  0  0  0  0  0  0  0  0  0
    3.8329   -4.0631   -2.8859 N   0  0  0  0  0  0  0  0  0  0  0  0
    0.2039   -3.1856   -3.4623 C   0  0  0  0  0  0  0  0  0  0  0  0
   -0.8561   -2.4883   -3.5343 O   0  0  0  0  0  0  0  0  0  0  0  0
    0.1651   -4.5707   -3.7730 O   0  0  0  0  0  0  0  0  0  0  0  0
   -1.0581   -5.1765   -4.1642 C   0  0  0  0  0  0  0  0  0  0  0  0
   -0.0874    0.8624    4.1786 H   0  0  0  0  0  0  0  0  0  0  0  0
    1.4126   -0.0336    4.1632 H   0  0  0  0  0  0  0  0  0  0  0  0
   -0.1133   -0.8847    4.1788 H   0  0  0  0  0  0  0  0  0  0  0  0
   -0.6441   -0.0321    1.9954 H   0  0  0  0  0  0  0  0  0  0  0  0
    2.0357    1.3059    2.1212 H   0  0  0  0  0  0  0  0  0  0  0  0
    0.4425    2.0719    2.0124 H   0  0  0  0  0  0  0  0  0  0  0  0
    1.6959    2.0671   -0.1134 H   0  0  0  0  0  0  0  0  0  0  0  0
    0.1311    1.2708   -0.1829 H   0  0  0  0  0  0  0  0  0  0  0  0
    1.7008   -2.0567   -0.1421 H   0  0  0  0  0  0  0  0  0  0  0  0
    0.1350   -1.2587   -0.1845 H   0  0  0  0  0  0  0  0  0  0  0  0
    2.0622   -1.3044    2.1038 H   0  0  0  0  0  0  0  0  0  0  0  0
    0.4904   -2.1063    2.0020 H   0  0  0  0  0  0  0  0  0  0  0  0
    6.2565   -0.7125   -4.4307 H   0  0  0  0  0  0  0  0  0  0  0  0
    7.6250    1.4305   -4.1715 H   0  0  0  0  0  0  0  0  0  0  0  0
    8.1854    1.7756   -1.8077 H   0  0  0  0  0  0  0  0  0  0  0  0
    7.5592    1.9972    0.3285 H   0  0  0  0  0  0  0  0  0  0  0  0
    6.5020    0.7145    0.8669 H   0  0  0  0  0  0  0  0  0  0  0  0
    5.8479    2.2962    0.5156 H   0  0  0  0  0  0  0  0  0  0  0  0
    0.6897   -0.6439   -2.8042 H   0  0  0  0  0  0  0  0  0  0  0  0
   -0.8955   -6.2164   -4.3570 H   0  0  0  0  0  0  0  0  0  0  0  0
   -1.4234   -4.7023   -5.0511 H   0  0  0  0  0  0  0  0  0  0  0  0
   -1.7772   -5.0674   -3.3794 H   0  0  0  0  0  0  0  0  0  0  0  0
  1  2  1  0  0  0  0
  1 28  1  0  0  0  0
  1 29  1  0  0  0  0
  1 30  1  0  0  0  0
  2  3  1  0  0  0  0
  2  7  1  0  0  0  0
  2 31  1  0  0  0  0
  3  4  1  0  0  0  0
  3 32  1  0  0  0  0
  3 33  1  0  0  0  0
  4  5  1  0  0  0  0
  4 34  1  0  0  0  0
  4 35  1  0  0  0  0
  5  6  1  0  0  0  0
  5  8  1  0  0  0  0
  6  7  1  0  0  0  0
  6 36  1  0  0  0  0
  6 37  1  0  0  0  0
  7 38  1  0  0  0  0
  7 39  1  0  0  0  0
  8  9  2  0  0  0  0
  8 18  1  0  0  0  0
  9 10  1  0  0  0  0
  9 20  1  0  0  0  0
 10 11  2  0  0  0  0
 10 12  1  0  0  0  0
 12 13  1  0  0  0  0
 12 17  1  0  0  0  0
 13 14  2  0  0  0  0
 13 40  1  0  0  0  0
 14 15  1  0  0  0  0
 14 41  1  0  0  0  0
 15 16  2  0  0  0  0
 15 42  1  0  0  0  0
 16 17  1  0  0  0  0
 16 19  1  0  0  0  0
 17 18  2  0  0  0  0
 19 43  1  0  0  0  0
 19 44  1  0  0  0  0
 19 45  1  0  0  0  0
 20 21  2  0  0  0  0
 20 46  1  0  0  0  0
 21 22  1  0  0  0  0
 21 24  1  0  0  0  0
 22 23  3  0  0  0  0
 24 25  2  0  0  0  0
 24 26  1  0  0  0  0
 26 27  1  0  0  0  0
 27 47  1  0  0  0  0
 27 48  1  0  0  0  0
 27 49  1  0  0  0  0
M  END
