
 OpenBabel10072620093D

 33 34  0  0  0  0  0  0  0  0999 V2000
   -2.8308   -2.1797    0.4381 C   0  0  0  0  0  0  0  0  0  0  0  0
   -2.1212   -0.8596    0.3811 C   0  0  0  0  0  0  0  0  0  0  0  0
   -0.7524   -0.7667    0.6526 C   0  0  0  0  0  0  0  0  0  0  0  0
   -0.1012    0.4715    0.5832 C   0  0  0  0  0  0  0  0  0  0  0  0
   -0.8014    1.6419    0.2410 C   0  0  0  0  0  0  0  0  0  0  0  0
   -2.1599    1.5304   -0.0653 C   0  0  0  0  0  0  0  0  0  0  0  0
   -2.8110    0.2939    0.0017 C   0  0  0  0  0  0  0  0  0  0  0  0
   -0.1063    2.8753    0.1986 N   0  0  0  0  0  0  0  0  0  0  0  0
   -0.6537    4.1441    0.1110 C   0  0  0  0  0  0  0  0  0  0  0  0
   -1.8487    4.3989    0.1523 O   0  0  0  0  0  0  0  0  0  0  0  0
    0.3448    5.0973   -0.0327 N   0  0  0  0  0  0  0  0  0  0  0  0
    0.1757    6.4991   -0.0031 C   0  0  0  0  0  0  0  0  0  0  0  0
   -0.9652    7.1238    0.5096 C   0  0  0  0  0  0  0  0  0  0  0  0
   -1.0509    8.5227    0.5095 C   0  0  0  0  0  0  0  0  0  0  0  0
   -0.0053    9.3094    0.0148 C   0  0  0  0  0  0  0  0  0  0  0  0
    1.1412    8.6877   -0.4752 C   0  0  0  0  0  0  0  0  0  0  0  0
    1.2299    7.2911   -0.4835 C   0  0  0  0  0  0  0  0  0  0  0  0
   -2.2477    9.1773    1.0451 N   0  3  0  0  0  0  0  0  0  0  0  0
   -2.9750    8.5257    1.8045 O   0  0  0  0  0  0  0  0  0  0  0  0
   -2.4489   10.3565    0.7140 O   0  5  0  0  0  0  0  0  0  0  0  0
    1.7603    0.5142    0.9818 Br  0  0  0  0  0  0  0  0  0  0  0  0
   -2.4082   -2.8181    1.2210 H   0  0  0  0  0  0  0  0  0  0  0  0
   -2.7477   -2.6933   -0.5242 H   0  0  0  0  0  0  0  0  0  0  0  0
   -3.8916   -2.0399    0.6726 H   0  0  0  0  0  0  0  0  0  0  0  0
   -0.1961   -1.6614    0.9226 H   0  0  0  0  0  0  0  0  0  0  0  0
   -2.7481    2.3903   -0.3703 H   0  0  0  0  0  0  0  0  0  0  0  0
   -3.8708    0.2475   -0.2425 H   0  0  0  0  0  0  0  0  0  0  0  0
    0.8693    2.8234    0.4578 H   0  0  0  0  0  0  0  0  0  0  0  0
    1.2246    4.7544   -0.3879 H   0  0  0  0  0  0  0  0  0  0  0  0
   -1.7849    6.5396    0.9182 H   0  0  0  0  0  0  0  0  0  0  0  0
   -0.0684   10.3955    0.0163 H   0  0  0  0  0  0  0  0  0  0  0  0
    1.9629    9.2909   -0.8557 H   0  0  0  0  0  0  0  0  0  0  0  0
    2.1325    6.8340   -0.8839 H   0  0  0  0  0  0  0  0  0  0  0  0
  1  2  1  0  0  0  0
  1 22  1  0  0  0  0
  1 23  1  0  0  0  0
  1 24  1  0  0  0  0
  2  3  2  0  0  0  0
  2  7  1  0  0  0  0
  3  4  1  0  0  0  0
  3 25  1  0  0  0  0
  4  5  2  0  0  0  0
  4 21  1  0  0  0  0
  5  6  1  0  0  0  0
  5  8  1  0  0  0  0
  6  7  2  0  0  0  0
  6 26  1  0  0  0  0
  7 27  1  0  0  0  0
  8  9  1  0  0  0  0
  8 28  1  0  0  0  0
  9 10  2  0  0  0  0
  9 11  1  0  0  0  0
 11 12  1  0  0  0  0
 11 29  1  0  0  0  0
 12 13  2  0  0  0  0
 12 17  1  0  0  0  0
 13 14  1  0  0  0  0
 13 30  1  0  0  0  0
 14 15  2  0  0  0  0
 14 18  1  0  0  0  0
 15 16  1  0  0  0  0
 15 31  1  0  0  0  0
 16 17  2  0  0  0  0
 16 32  1  0  0  0  0
 17 33  1  0  0  0  0
 18 19  2  0  0  0  0
 18 20  1  0  0  0  0
M  CHG  2  18   1  20  -1
M  END
