
 OpenBabel10072620163D

 72 75  0  0  0  0  0  0  0  0999 V2000
    6.3970   -1.4407   -5.9998 C   0  0  0  0  0  0  0  0  0  0  0  0
    5.2365   -0.5620   -5.5488 C   0  0  0  0  0  0  0  0  0  0  0  0
    4.4986   -1.1254   -4.4213 N   0  0  0  0  0  0  0  0  0  0  0  0
    4.9229   -1.0069   -3.0921 C   0  0  0  0  0  0  0  0  0  0  0  0
    4.6477   -2.0029   -2.1159 C   0  0  0  0  0  0  0  0  0  0  0  0
    5.1018   -1.9347   -0.8376 N   0  0  0  0  0  0  0  0  0  0  0  0
    5.8165   -0.8563   -0.4661 C   0  0  0  0  0  0  0  0  0  0  0  0
    6.1242    0.1708   -1.3283 C   0  0  0  0  0  0  0  0  0  0  0  0
    5.6793    0.0830   -2.6478 C   0  0  0  0  0  0  0  0  0  0  0  0
    3.9111   -3.1469   -2.4948 N   0  0  0  0  0  0  0  0  0  0  0  0
    4.7376   -4.3633   -2.3001 C   0  0  0  0  0  0  0  0  0  0  0  0
    5.9658   -4.3821   -3.2118 C   0  0  0  0  0  0  0  0  0  0  0  0
    2.5175   -3.2121   -1.9536 C   0  0  0  0  0  0  0  0  0  0  0  0
    1.6776   -1.9449   -2.1696 C   0  0  0  0  0  0  0  0  0  0  0  0
    1.8136   -0.8913   -1.0710 C   0  0  0  0  0  0  0  0  0  0  0  0
    1.6398   -1.4431    0.2731 N   0  0  0  0  0  0  0  0  0  0  0  0
    2.4116   -2.6484    0.5581 C   0  0  0  0  0  0  0  0  0  0  0  0
    2.3389   -3.7187   -0.5162 C   0  0  0  0  0  0  0  0  0  0  0  0
    1.4401   -0.6451    1.4194 C   0  0  0  0  0  0  0  0  0  0  0  0
    1.3976   -1.1426    2.5427 O   0  0  0  0  0  0  0  0  0  0  0  0
    1.4062    0.7887    1.2617 C   0  0  0  0  0  0  0  0  0  0  0  0
    2.1880    1.7215    1.9255 C   0  0  0  0  0  0  0  0  0  0  0  0
    1.8448    3.0052    1.4308 C   0  0  0  0  0  0  0  0  0  0  0  0
    0.8248    2.8306    0.4981 C   0  0  0  0  0  0  0  0  0  0  0  0
    0.5369    1.4902    0.4696 N   0  0  0  0  0  0  0  0  0  0  0  0
    0.2450    3.8865   -0.2078 C   0  0  0  0  0  0  0  0  0  0  0  0
    0.7421    5.1693    0.0405 C   0  0  0  0  0  0  0  0  0  0  0  0
    1.7675    5.3666    0.9646 C   0  0  0  0  0  0  0  0  0  0  0  0
    2.3066    4.3029    1.6912 C   0  0  0  0  0  0  0  0  0  0  0  0
    2.2418    6.6786    1.2548 N   0  0  0  0  0  0  0  0  0  0  0  0
    1.3732    7.5568    2.4018 S   0  0  0  0  0  0  0  0  0  0  0  0
    1.7594    8.9350    2.1827 O   0  0  0  0  0  0  0  0  0  0  0  0
   -0.0196    7.1686    2.3294 O   0  0  0  0  0  0  0  0  0  0  0  0
    2.0621    7.0078    3.9889 C   0  0  0  0  0  0  0  0  0  0  0  0
    3.5647    7.2495    4.0962 C   0  0  0  0  0  0  0  0  0  0  0  0
    1.3090    7.7355    5.1008 C   0  0  0  0  0  0  0  0  0  0  0  0
    6.9760   -0.9466   -6.7927 H   0  0  0  0  0  0  0  0  0  0  0  0
    6.0444   -2.4025   -6.3852 H   0  0  0  0  0  0  0  0  0  0  0  0
    7.0933   -1.6407   -5.1820 H   0  0  0  0  0  0  0  0  0  0  0  0
    4.5457   -0.4302   -6.3892 H   0  0  0  0  0  0  0  0  0  0  0  0
    5.6172    0.4383   -5.3234 H   0  0  0  0  0  0  0  0  0  0  0  0
    3.8156   -1.8790   -4.6067 H   0  0  0  0  0  0  0  0  0  0  0  0
    6.1429   -0.8410    0.5720 H   0  0  0  0  0  0  0  0  0  0  0  0
    6.6971    1.0249   -0.9848 H   0  0  0  0  0  0  0  0  0  0  0  0
    5.9099    0.9041   -3.3161 H   0  0  0  0  0  0  0  0  0  0  0  0
    4.1280   -5.2405   -2.5459 H   0  0  0  0  0  0  0  0  0  0  0  0
    5.0603   -4.4902   -1.2570 H   0  0  0  0  0  0  0  0  0  0  0  0
    5.6887   -4.2056   -4.2568 H   0  0  0  0  0  0  0  0  0  0  0  0
    6.4803   -5.3469   -3.1461 H   0  0  0  0  0  0  0  0  0  0  0  0
    6.6907   -3.6161   -2.9151 H   0  0  0  0  0  0  0  0  0  0  0  0
    2.0435   -3.9705   -2.5971 H   0  0  0  0  0  0  0  0  0  0  0  0
    0.6250   -2.2650   -2.1766 H   0  0  0  0  0  0  0  0  0  0  0  0
    1.8624   -1.4891   -3.1482 H   0  0  0  0  0  0  0  0  0  0  0  0
    1.0333   -0.1497   -1.2571 H   0  0  0  0  0  0  0  0  0  0  0  0
    2.7679   -0.3582   -1.1081 H   0  0  0  0  0  0  0  0  0  0  0  0
    2.0710   -3.0909    1.5019 H   0  0  0  0  0  0  0  0  0  0  0  0
    3.4459   -2.3455    0.7376 H   0  0  0  0  0  0  0  0  0  0  0  0
    1.3366   -4.1686   -0.4450 H   0  0  0  0  0  0  0  0  0  0  0  0
    3.0434   -4.5139   -0.2612 H   0  0  0  0  0  0  0  0  0  0  0  0
    2.9533    1.5007    2.6619 H   0  0  0  0  0  0  0  0  0  0  0  0
   -0.1952    1.0722   -0.0902 H   0  0  0  0  0  0  0  0  0  0  0  0
   -0.5663    3.7201   -0.9081 H   0  0  0  0  0  0  0  0  0  0  0  0
    0.2858    6.0128   -0.4715 H   0  0  0  0  0  0  0  0  0  0  0  0
    3.0755    4.4705    2.4361 H   0  0  0  0  0  0  0  0  0  0  0  0
    2.3773    7.2721    0.4334 H   0  0  0  0  0  0  0  0  0  0  0  0
    1.8523    5.9356    4.0758 H   0  0  0  0  0  0  0  0  0  0  0  0
    3.8149    8.3095    3.9811 H   0  0  0  0  0  0  0  0  0  0  0  0
    4.1196    6.6931    3.3344 H   0  0  0  0  0  0  0  0  0  0  0  0
    3.9383    6.9202    5.0732 H   0  0  0  0  0  0  0  0  0  0  0  0
    1.4450    8.8196    5.0229 H   0  0  0  0  0  0  0  0  0  0  0  0
    1.6389    7.4140    6.0927 H   0  0  0  0  0  0  0  0  0  0  0  0
    0.2348    7.5355    5.0280 H   0  0  0  0  0  0  0  0  0  0  0  0
  1  2  1  0  0  0  0
  1 37  1  0  0  0  0
  1 38  1  0  0  0  0
  1 39  1  0  0  0  0
  2  3  1  0  0  0  0
  2 40  1  0  0  0  0
  2 41  1  0  0  0  0
  3  4  1  0  0  0  0
  3 42  1  0  0  0  0
  4  5  2  0  0  0  0
  4  9  1  0  0  0  0
  5  6  1  0  0  0  0
  5 10  1  0  0  0  0
  6  7  2  0  0  0  0
  7  8  1  0  0  0  0
  7 43  1  0  0  0  0
  8  9  2  0  0  0  0
  8 44  1  0  0  0  0
  9 45  1  0  0  0  0
 10 11  1  0  0  0  0
 10 13  1  0  0  0  0
 11 12  1  0  0  0  0
 11 46  1  0  0  0  0
 11 47  1  0  0  0  0
 12 48  1  0  0  0  0
 12 49  1  0  0  0  0
 12 50  1  0  0  0  0
 13 14  1  0  0  0  0
 13 18  1  0  0  0  0
 13 51  1  0  0  0  0
 14 15  1  0  0  0  0
 14 52  1  0  0  0  0
 14 53  1  0  0  0  0
 15 16  1  0  0  0  0
 15 54  1  0  0  0  0
 15 55  1  0  0  0  0
 16 17  1  0  0  0  0
 16 19  1  0  0  0  0
 17 18  1  0  0  0  0
 17 56  1  0  0  0  0
 17 57  1  0  0  0  0
 18 58  1  0  0  0  0
 18 59  1  0  0  0  0
 19 20  2  0  0  0  0
 19 21  1  0  0  0  0
 21 22  2  0  0  0  0
 21 25  1  0  0  0  0
 22 23  1  0  0  0  0
 22 60  1  0  0  0  0
 23 24  2  0  0  0  0
 23 29  1  0  0  0  0
 24 25  1  0  0  0  0
 24 26  1  0  0  0  0
 25 61  1  0  0  0  0
 26 27  2  0  0  0  0
 26 62  1  0  0  0  0
 27 28  1  0  0  0  0
 27 63  1  0  0  0  0
 28 29  2  0  0  0  0
 28 30  1  0  0  0  0
 29 64  1  0  0  0  0
 30 31  1  0  0  0  0
 30 65  1  0  0  0  0
 31 32  2  0  0  0  0
 31 33  2  0  0  0  0
 31 34  1  0  0  0  0
 34 35  1  0  0  0  0
 34 36  1  0  0  0  0
 34 66  1  0  0  0  0
 35 67  1  0  0  0  0
 35 68  1  0  0  0  0
 35 69  1  0  0  0  0
 36 70  1  0  0  0  0
 36 71  1  0  0  0  0
 36 72  1  0  0  0  0
M  END
