
 OpenBabel10072616313D

 41 41  0  0  1  0  0  0  0  0999 V2000
    1.6000   -0.9240   -0.7567 C   0  0  0  0  0  0  0  0  0  0  0  0
    2.2648    0.4096   -0.4727 C   0  0  0  0  0  0  0  0  0  0  0  0
    2.9319    0.8872   -1.6491 O   0  0  0  0  0  0  0  0  0  0  0  0
    4.2068    0.4653   -1.8274 C   0  0  0  0  0  0  0  0  0  0  0  0
    4.8164   -0.2614   -1.0563 O   0  0  0  0  0  0  0  0  0  0  0  0
    4.7771    1.0297   -3.0808 C   0  0  0  0  0  0  0  0  0  0  0  0
    5.8196    0.4229   -3.6994 C   0  0  0  0  0  0  0  0  0  0  0  0
    6.4641    1.0629   -4.7497 N   0  0  0  0  0  0  0  0  0  0  0  0
    6.2456    2.3877   -5.1042 C   0  0  0  0  0  0  0  0  0  0  0  0
    5.1994    3.0534   -4.5672 C   0  0  0  0  0  0  0  0  0  0  0  0
    4.2516    2.3780   -3.5800 C   0  0  3  0  0  0  0  0  0  0  0  0
    2.8915    2.2092   -4.2483 C   0  0  0  0  0  0  0  0  0  0  0  0
    1.7957    2.9137   -3.9299 C   0  0  0  0  0  0  0  0  0  0  0  0
    4.8738    4.4722   -4.8558 C   0  0  0  0  0  0  0  0  0  0  0  0
    4.5373    5.2737   -3.9978 O   0  0  0  0  0  0  0  0  0  0  0  0
    4.9237    4.7001   -6.1916 O   0  0  0  0  0  0  0  0  0  0  0  0
    4.5671    6.0163   -6.6389 C   0  0  0  0  0  0  0  0  0  0  0  0
    3.2125    5.9538   -7.3173 C   0  0  0  0  0  0  0  0  0  0  0  0
    7.2624    2.9842   -6.0457 C   0  0  0  0  0  0  0  0  0  0  0  0
    6.3730   -0.9333   -3.3297 C   0  0  0  0  0  0  0  0  0  0  0  0
    1.0585   -1.2799    0.1244 H   0  0  0  0  0  0  0  0  0  0  0  0
    2.3406   -1.6783   -1.0415 H   0  0  0  0  0  0  0  0  0  0  0  0
    0.8982   -0.8345   -1.5929 H   0  0  0  0  0  0  0  0  0  0  0  0
    2.9536    0.3369    0.3767 H   0  0  0  0  0  0  0  0  0  0  0  0
    1.5050    1.1532   -0.2097 H   0  0  0  0  0  0  0  0  0  0  0  0
    7.3242    0.6349   -5.0833 H   0  0  0  0  0  0  0  0  0  0  0  0
    4.1645    3.0335   -2.7014 H   0  0  0  0  0  0  0  0  0  0  0  0
    2.8260    1.4641   -5.0398 H   0  0  0  0  0  0  0  0  0  0  0  0
    1.8137    3.6755   -3.1551 H   0  0  0  0  0  0  0  0  0  0  0  0
    0.8546    2.7420   -4.4431 H   0  0  0  0  0  0  0  0  0  0  0  0
    5.3297    6.3293   -7.3597 H   0  0  0  0  0  0  0  0  0  0  0  0
    4.5619    6.7529   -5.8282 H   0  0  0  0  0  0  0  0  0  0  0  0
    3.2321    5.2393   -8.1475 H   0  0  0  0  0  0  0  0  0  0  0  0
    2.9256    6.9360   -7.7043 H   0  0  0  0  0  0  0  0  0  0  0  0
    2.4445    5.6089   -6.6173 H   0  0  0  0  0  0  0  0  0  0  0  0
    8.2709    2.6434   -5.7842 H   0  0  0  0  0  0  0  0  0  0  0  0
    7.2929    4.0767   -6.0101 H   0  0  0  0  0  0  0  0  0  0  0  0
    7.0528    2.6711   -7.0738 H   0  0  0  0  0  0  0  0  0  0  0  0
    5.5962   -1.6225   -2.9847 H   0  0  0  0  0  0  0  0  0  0  0  0
    7.1407   -0.8347   -2.5559 H   0  0  0  0  0  0  0  0  0  0  0  0
    6.8352   -1.4131   -4.2007 H   0  0  0  0  0  0  0  0  0  0  0  0
  1  2  1  0  0  0  0
  1 21  1  0  0  0  0
  1 22  1  0  0  0  0
  1 23  1  0  0  0  0
  2  3  1  0  0  0  0
  2 24  1  0  0  0  0
  2 25  1  0  0  0  0
  3  4  1  0  0  0  0
  4  5  2  0  0  0  0
  4  6  1  0  0  0  0
  6  7  2  0  0  0  0
  6 11  1  0  0  0  0
  7  8  1  0  0  0  0
  7 20  1  0  0  0  0
  8  9  1  0  0  0  0
  8 26  1  0  0  0  0
  9 10  2  0  0  0  0
  9 19  1  0  0  0  0
 10 11  1  0  0  0  0
 10 14  1  0  0  0  0
 11 12  1  0  0  0  0
 11 27  1  0  0  0  0
 12 13  2  0  0  0  0
 12 28  1  0  0  0  0
 13 29  1  0  0  0  0
 13 30  1  0  0  0  0
 14 15  2  0  0  0  0
 14 16  1  0  0  0  0
 16 17  1  0  0  0  0
 17 18  1  0  0  0  0
 17 31  1  0  0  0  0
 17 32  1  0  0  0  0
 18 33  1  0  0  0  0
 18 34  1  0  0  0  0
 18 35  1  0  0  0  0
 19 36  1  0  0  0  0
 19 37  1  0  0  0  0
 19 38  1  0  0  0  0
 20 39  1  0  0  0  0
 20 40  1  0  0  0  0
 20 41  1  0  0  0  0
M  END
