
 OpenBabel10072619473D

 46 49  0  0  0  0  0  0  0  0999 V2000
    4.5637    0.8856    2.4223 C   0  0  0  0  0  0  0  0  0  0  0  0
    3.6629    1.0394    1.2273 C   0  0  0  0  0  0  0  0  0  0  0  0
    3.8125    1.9684    0.4339 O   0  0  0  0  0  0  0  0  0  0  0  0
    2.5757    0.0410    1.0025 C   0  0  0  0  0  0  0  0  0  0  0  0
    2.4252   -1.0918    1.8213 C   0  0  0  0  0  0  0  0  0  0  0  0
    1.4116   -2.0198    1.5705 C   0  0  0  0  0  0  0  0  0  0  0  0
    0.5558   -1.7950    0.4806 C   0  0  0  0  0  0  0  0  0  0  0  0
    0.6890   -0.6662   -0.3300 C   0  0  0  0  0  0  0  0  0  0  0  0
    1.7020    0.2507   -0.0681 C   0  0  0  0  0  0  0  0  0  0  0  0
    1.1688   -3.1958    2.3146 N   0  0  0  0  0  0  0  0  0  0  0  0
    1.6863   -3.7368    3.4637 C   0  0  0  0  0  0  0  0  0  0  0  0
    2.8037   -3.0805    4.5228 S   0  0  0  0  0  0  0  0  0  0  0  0
    1.1212   -4.9190    3.8896 N   0  0  0  0  0  0  0  0  0  0  0  0
    0.2914   -5.8743    3.2529 C   0  0  0  0  0  0  0  0  0  0  0  0
    0.3260   -6.1806    1.8730 C   0  0  0  0  0  0  0  0  0  0  0  0
   -0.6181   -7.0594    1.3091 C   0  0  0  0  0  0  0  0  0  0  0  0
   -1.5855   -7.6549    2.1432 C   0  0  0  0  0  0  0  0  0  0  0  0
   -2.7277   -8.4912    1.9615 C   0  0  0  0  0  0  0  0  0  0  0  0
   -3.4091   -9.0488    0.8615 C   0  0  0  0  0  0  0  0  0  0  0  0
   -4.5461   -9.8355    1.1025 C   0  0  0  0  0  0  0  0  0  0  0  0
   -5.0017  -10.0736    2.4025 C   0  0  0  0  0  0  0  0  0  0  0  0
   -4.3469   -9.5204    3.5069 C   0  0  0  0  0  0  0  0  0  0  0  0
   -3.2280   -8.7375    3.2362 C   0  0  0  0  0  0  0  0  0  0  0  0
   -2.4786   -8.0953    4.1728 O   0  0  0  0  0  0  0  0  0  0  0  0
   -1.5076   -7.4156    3.5082 C   0  0  0  0  0  0  0  0  0  0  0  0
   -0.5804   -6.5682    4.1062 C   0  0  0  0  0  0  0  0  0  0  0  0
    1.3115   -5.5790    1.1312 O   0  0  0  0  0  0  0  0  0  0  0  0
    1.7259   -6.2216   -0.0680 C   0  0  0  0  0  0  0  0  0  0  0  0
    5.2250    1.7547    2.4877 H   0  0  0  0  0  0  0  0  0  0  0  0
    5.1812   -0.0099    2.3168 H   0  0  0  0  0  0  0  0  0  0  0  0
    3.9715    0.8458    3.3394 H   0  0  0  0  0  0  0  0  0  0  0  0
    3.1245   -1.2460    2.6260 H   0  0  0  0  0  0  0  0  0  0  0  0
   -0.2417   -2.4994    0.2495 H   0  0  0  0  0  0  0  0  0  0  0  0
    0.0144   -0.5075   -1.1663 H   0  0  0  0  0  0  0  0  0  0  0  0
    1.8096    1.1264   -0.7063 H   0  0  0  0  0  0  0  0  0  0  0  0
    0.4662   -3.7922    1.8965 H   0  0  0  0  0  0  0  0  0  0  0  0
    1.2835   -5.0707    4.8807 H   0  0  0  0  0  0  0  0  0  0  0  0
   -0.6361   -7.2770    0.2476 H   0  0  0  0  0  0  0  0  0  0  0  0
   -3.0762   -8.8604   -0.1542 H   0  0  0  0  0  0  0  0  0  0  0  0
   -5.0866  -10.2651    0.2609 H   0  0  0  0  0  0  0  0  0  0  0  0
   -5.8834  -10.6913    2.5604 H   0  0  0  0  0  0  0  0  0  0  0  0
   -4.6918   -9.6811    4.5219 H   0  0  0  0  0  0  0  0  0  0  0  0
   -0.6075   -6.4066    5.1777 H   0  0  0  0  0  0  0  0  0  0  0  0
    1.9655   -7.2772    0.0985 H   0  0  0  0  0  0  0  0  0  0  0  0
    2.6384   -5.7251   -0.4187 H   0  0  0  0  0  0  0  0  0  0  0  0
    0.9682   -6.1022   -0.8476 H   0  0  0  0  0  0  0  0  0  0  0  0
  1  2  1  0  0  0  0
  1 29  1  0  0  0  0
  1 30  1  0  0  0  0
  1 31  1  0  0  0  0
  2  3  2  0  0  0  0
  2  4  1  0  0  0  0
  4  5  2  0  0  0  0
  4  9  1  0  0  0  0
  5  6  1  0  0  0  0
  5 32  1  0  0  0  0
  6  7  2  0  0  0  0
  6 10  1  0  0  0  0
  7  8  1  0  0  0  0
  7 33  1  0  0  0  0
  8  9  2  0  0  0  0
  8 34  1  0  0  0  0
  9 35  1  0  0  0  0
 10 11  1  0  0  0  0
 10 36  1  0  0  0  0
 11 12  2  0  0  0  0
 11 13  1  0  0  0  0
 13 14  1  0  0  0  0
 13 37  1  0  0  0  0
 14 15  2  0  0  0  0
 14 26  1  0  0  0  0
 15 16  1  0  0  0  0
 15 27  1  0  0  0  0
 16 17  2  0  0  0  0
 16 38  1  0  0  0  0
 17 18  1  0  0  0  0
 17 25  1  0  0  0  0
 18 19  2  0  0  0  0
 18 23  1  0  0  0  0
 19 20  1  0  0  0  0
 19 39  1  0  0  0  0
 20 21  2  0  0  0  0
 20 40  1  0  0  0  0
 21 22  1  0  0  0  0
 21 41  1  0  0  0  0
 22 23  2  0  0  0  0
 22 42  1  0  0  0  0
 23 24  1  0  0  0  0
 24 25  1  0  0  0  0
 25 26  2  0  0  0  0
 26 43  1  0  0  0  0
 27 28  1  0  0  0  0
 28 44  1  0  0  0  0
 28 45  1  0  0  0  0
 28 46  1  0  0  0  0
M  END
