
 OpenBabel10072620003D

 40 42  0  0  0  0  0  0  0  0999 V2000
   -1.9852   -0.0626   -0.4753 C   0  0  0  0  0  0  0  0  0  0  0  0
   -0.6313    0.3133   -0.0071 C   0  0  0  0  0  0  0  0  0  0  0  0
    0.0126    1.5270    0.1157 C   0  0  0  0  0  0  0  0  0  0  0  0
    1.3022    1.2224    0.6258 C   0  0  0  0  0  0  0  0  0  0  0  0
    1.4320   -0.0930    0.8591 N   0  0  0  0  0  0  0  0  0  0  0  0
    0.2720   -0.6166    0.4261 N   0  0  0  0  0  0  0  0  0  0  0  0
    2.2848    2.1547    0.8913 N   0  0  0  0  0  0  0  0  0  0  0  0
    3.4806    1.9738    1.5413 C   0  0  0  0  0  0  0  0  0  0  0  0
    4.4223    3.3354    1.7781 S   0  0  0  0  0  0  0  0  0  0  0  0
    3.7408    0.6946    1.9864 N   0  0  0  0  0  0  0  0  0  0  0  0
    4.6839    0.3205    2.9311 C   0  0  0  0  0  0  0  0  0  0  0  0
    5.8516    0.6834    2.9822 O   0  0  0  0  0  0  0  0  0  0  0  0
    4.1932   -0.6549    3.9327 C   0  0  0  0  0  0  0  0  0  0  0  0
    3.3957   -1.7469    3.5762 C   0  0  0  0  0  0  0  0  0  0  0  0
    2.9138   -2.5979    4.5697 C   0  0  0  0  0  0  0  0  0  0  0  0
    3.2346   -2.3638    5.9101 C   0  0  0  0  0  0  0  0  0  0  0  0
    4.0353   -1.2768    6.2614 C   0  0  0  0  0  0  0  0  0  0  0  0
    4.5182   -0.4213    5.2747 C   0  0  0  0  0  0  0  0  0  0  0  0
   -0.5868    2.8044   -0.2085 C   0  0  0  0  0  0  0  0  0  0  0  0
   -1.5920    3.3450    0.6014 C   0  0  0  0  0  0  0  0  0  0  0  0
   -2.1632    4.5782    0.2819 C   0  0  0  0  0  0  0  0  0  0  0  0
   -1.7351    5.2730   -0.8518 C   0  0  0  0  0  0  0  0  0  0  0  0
   -0.7220    4.7443   -1.6528 C   0  0  0  0  0  0  0  0  0  0  0  0
   -0.1450    3.5155   -1.3303 C   0  0  0  0  0  0  0  0  0  0  0  0
   -2.2840    0.5377   -1.3396 H   0  0  0  0  0  0  0  0  0  0  0  0
   -2.7178    0.0945    0.3220 H   0  0  0  0  0  0  0  0  0  0  0  0
   -2.0276   -1.1143   -0.7741 H   0  0  0  0  0  0  0  0  0  0  0  0
    0.1528   -1.6243    0.4607 H   0  0  0  0  0  0  0  0  0  0  0  0
    2.0738    3.1128    0.6320 H   0  0  0  0  0  0  0  0  0  0  0  0
    2.9052    0.1197    1.9193 H   0  0  0  0  0  0  0  0  0  0  0  0
    3.1569   -1.9529    2.5349 H   0  0  0  0  0  0  0  0  0  0  0  0
    2.2920   -3.4470    4.3017 H   0  0  0  0  0  0  0  0  0  0  0  0
    2.8583   -3.0279    6.6839 H   0  0  0  0  0  0  0  0  0  0  0  0
    4.2836   -1.0909    7.3034 H   0  0  0  0  0  0  0  0  0  0  0  0
    5.1354    0.4344    5.5436 H   0  0  0  0  0  0  0  0  0  0  0  0
   -1.9318    2.8153    1.4910 H   0  0  0  0  0  0  0  0  0  0  0  0
   -2.9425    5.0015    0.9120 H   0  0  0  0  0  0  0  0  0  0  0  0
   -2.1920    6.2243   -1.1088 H   0  0  0  0  0  0  0  0  0  0  0  0
   -0.3812    5.2921   -2.5289 H   0  0  0  0  0  0  0  0  0  0  0  0
    0.6380    3.1121   -1.9678 H   0  0  0  0  0  0  0  0  0  0  0  0
  1  2  1  0  0  0  0
  1 25  1  0  0  0  0
  1 26  1  0  0  0  0
  1 27  1  0  0  0  0
  2  3  2  0  0  0  0
  2  6  1  0  0  0  0
  3  4  1  0  0  0  0
  3 19  1  0  0  0  0
  4  5  2  0  0  0  0
  4  7  1  0  0  0  0
  5  6  1  0  0  0  0
  6 28  1  0  0  0  0
  7  8  1  0  0  0  0
  7 29  1  0  0  0  0
  8  9  2  0  0  0  0
  8 10  1  0  0  0  0
 10 11  1  0  0  0  0
 10 30  1  0  0  0  0
 11 12  2  0  0  0  0
 11 13  1  0  0  0  0
 13 14  2  0  0  0  0
 13 18  1  0  0  0  0
 14 15  1  0  0  0  0
 14 31  1  0  0  0  0
 15 16  2  0  0  0  0
 15 32  1  0  0  0  0
 16 17  1  0  0  0  0
 16 33  1  0  0  0  0
 17 18  2  0  0  0  0
 17 34  1  0  0  0  0
 18 35  1  0  0  0  0
 19 20  2  0  0  0  0
 19 24  1  0  0  0  0
 20 21  1  0  0  0  0
 20 36  1  0  0  0  0
 21 22  2  0  0  0  0
 21 37  1  0  0  0  0
 22 23  1  0  0  0  0
 22 38  1  0  0  0  0
 23 24  2  0  0  0  0
 23 39  1  0  0  0  0
 24 40  1  0  0  0  0
M  END
