
 OpenBabel10072619443D

 42 45  0  0  0  0  0  0  0  0999 V2000
   -2.7826    0.5266    5.9260 C   0  0  0  0  0  0  0  0  0  0  0  0
   -1.7928    1.1526    4.9572 C   0  0  0  0  0  0  0  0  0  0  0  0
   -2.3004    1.1105    3.6185 O   0  0  0  0  0  0  0  0  0  0  0  0
   -2.8019   -0.1295    3.3165 C   0  0  0  0  0  0  0  0  0  0  0  0
   -3.1171   -1.0849    4.2902 C   0  0  0  0  0  0  0  0  0  0  0  0
   -2.9763   -0.8624    5.6359 O   0  0  0  0  0  0  0  0  0  0  0  0
   -3.5906   -2.3416    3.9121 C   0  0  0  0  0  0  0  0  0  0  0  0
   -3.7806   -2.6375    2.5610 C   0  0  0  0  0  0  0  0  0  0  0  0
   -3.4973   -1.6643    1.5978 C   0  0  0  0  0  0  0  0  0  0  0  0
   -3.0011   -0.4102    1.9672 C   0  0  0  0  0  0  0  0  0  0  0  0
   -3.7343   -2.0219   -0.1214 S   0  0  0  0  0  0  0  0  0  0  0  0
   -2.6311   -1.4328   -0.8462 O   0  0  0  0  0  0  0  0  0  0  0  0
   -4.0902   -3.4150   -0.2708 O   0  0  0  0  0  0  0  0  0  0  0  0
   -5.0865   -1.0881   -0.4826 N   0  0  0  0  0  0  0  0  0  0  0  0
   -6.4165   -1.6732   -0.2400 C   0  0  0  0  0  0  0  0  0  0  0  0
   -7.4649   -0.5593   -0.1949 C   0  0  0  0  0  0  0  0  0  0  0  0
   -8.8440   -1.0819    0.0424 C   0  0  0  0  0  0  0  0  0  0  0  0
   -9.7454   -0.6463    0.9928 C   0  0  0  0  0  0  0  0  0  0  0  0
  -11.2010   -1.5401    0.8757 S   0  0  0  0  0  0  0  0  0  0  0  0
  -10.5432   -2.4427   -0.4334 C   0  0  0  0  0  0  0  0  0  0  0  0
   -9.3127   -2.1026   -0.7681 N   0  0  0  0  0  0  0  0  0  0  0  0
  -11.2409   -3.4987   -1.1330 C   0  0  0  0  0  0  0  0  0  0  0  0
  -10.7089   -4.2814   -2.1453 C   0  0  0  0  0  0  0  0  0  0  0  0
  -11.6316   -5.2414   -2.6526 C   0  0  0  0  0  0  0  0  0  0  0  0
  -12.8473   -5.1668   -2.0149 C   0  0  0  0  0  0  0  0  0  0  0  0
  -12.8663   -3.9524   -0.8133 S   0  0  0  0  0  0  0  0  0  0  0  0
   -3.7562    1.0305    5.8851 H   0  0  0  0  0  0  0  0  0  0  0  0
   -2.4044    0.5993    6.9505 H   0  0  0  0  0  0  0  0  0  0  0  0
   -0.8245    0.6369    4.9818 H   0  0  0  0  0  0  0  0  0  0  0  0
   -1.6266    2.2033    5.2147 H   0  0  0  0  0  0  0  0  0  0  0  0
   -3.8147   -3.0873    4.6702 H   0  0  0  0  0  0  0  0  0  0  0  0
   -4.1494   -3.6194    2.2714 H   0  0  0  0  0  0  0  0  0  0  0  0
   -2.7587    0.3359    1.2148 H   0  0  0  0  0  0  0  0  0  0  0  0
   -4.9533   -0.5566   -1.3433 H   0  0  0  0  0  0  0  0  0  0  0  0
   -6.4259   -2.2237    0.7072 H   0  0  0  0  0  0  0  0  0  0  0  0
   -6.6409   -2.3767   -1.0501 H   0  0  0  0  0  0  0  0  0  0  0  0
   -7.4582   -0.0062   -1.1423 H   0  0  0  0  0  0  0  0  0  0  0  0
   -7.1994    0.1641    0.5866 H   0  0  0  0  0  0  0  0  0  0  0  0
   -9.6261    0.1340    1.7313 H   0  0  0  0  0  0  0  0  0  0  0  0
   -9.6926   -4.1649   -2.5049 H   0  0  0  0  0  0  0  0  0  0  0  0
  -11.4121   -5.9474   -3.4444 H   0  0  0  0  0  0  0  0  0  0  0  0
  -13.7284   -5.7677   -2.1955 H   0  0  0  0  0  0  0  0  0  0  0  0
  1  2  1  0  0  0  0
  1  6  1  0  0  0  0
  1 27  1  0  0  0  0
  1 28  1  0  0  0  0
  2  3  1  0  0  0  0
  2 29  1  0  0  0  0
  2 30  1  0  0  0  0
  3  4  1  0  0  0  0
  4  5  2  0  0  0  0
  4 10  1  0  0  0  0
  5  6  1  0  0  0  0
  5  7  1  0  0  0  0
  7  8  2  0  0  0  0
  7 31  1  0  0  0  0
  8  9  1  0  0  0  0
  8 32  1  0  0  0  0
  9 10  2  0  0  0  0
  9 11  1  0  0  0  0
 10 33  1  0  0  0  0
 11 12  2  0  0  0  0
 11 13  2  0  0  0  0
 11 14  1  0  0  0  0
 14 15  1  0  0  0  0
 14 34  1  0  0  0  0
 15 16  1  0  0  0  0
 15 35  1  0  0  0  0
 15 36  1  0  0  0  0
 16 17  1  0  0  0  0
 16 37  1  0  0  0  0
 16 38  1  0  0  0  0
 17 18  2  0  0  0  0
 17 21  1  0  0  0  0
 18 19  1  0  0  0  0
 18 39  1  0  0  0  0
 19 20  1  0  0  0  0
 20 21  2  0  0  0  0
 20 22  1  0  0  0  0
 22 23  2  0  0  0  0
 22 26  1  0  0  0  0
 23 24  1  0  0  0  0
 23 40  1  0  0  0  0
 24 25  2  0  0  0  0
 24 41  1  0  0  0  0
 25 26  1  0  0  0  0
 25 42  1  0  0  0  0
M  END
