
 OpenBabel10072619543D

 37 38  0  0  0  0  0  0  0  0999 V2000
    2.1940    1.3357    0.3179 C   0  0  0  0  0  0  0  0  0  0  0  0
    0.7475    0.9229    0.2737 C   0  0  0  0  0  0  0  0  0  0  0  0
   -0.2943    1.8711    0.2991 C   0  0  0  0  0  0  0  0  0  0  0  0
   -1.6346    1.4347    0.2703 C   0  0  0  0  0  0  0  0  0  0  0  0
   -1.9490    0.0751    0.2503 C   0  0  0  0  0  0  0  0  0  0  0  0
   -0.9087   -0.8585    0.2488 C   0  0  0  0  0  0  0  0  0  0  0  0
    0.4242   -0.4401    0.2569 C   0  0  0  0  0  0  0  0  0  0  0  0
   -3.2636   -0.4302    0.2812 N   0  0  0  0  0  0  0  0  0  0  0  0
   -4.4500    0.2609    0.0934 C   0  0  0  0  0  0  0  0  0  0  0  0
   -4.5531    1.4157   -0.2942 O   0  0  0  0  0  0  0  0  0  0  0  0
   -5.5187   -0.5633    0.4122 N   0  0  0  0  0  0  0  0  0  0  0  0
   -6.8943   -0.3221    0.1978 C   0  0  0  0  0  0  0  0  0  0  0  0
   -7.8276   -1.1296    0.8734 C   0  0  0  0  0  0  0  0  0  0  0  0
   -9.1994   -0.9520    0.6884 C   0  0  0  0  0  0  0  0  0  0  0  0
   -9.6584    0.0256   -0.1932 C   0  0  0  0  0  0  0  0  0  0  0  0
   -8.7496    0.8361   -0.8911 C   0  0  0  0  0  0  0  0  0  0  0  0
   -7.3678    0.6520   -0.6877 C   0  0  0  0  0  0  0  0  0  0  0  0
   -9.2378    1.8613   -1.8903 C   0  0  0  0  0  0  0  0  0  0  0  0
  -10.5636    2.1492   -1.7560 F   0  0  0  0  0  0  0  0  0  0  0  0
   -8.5888    3.0536   -1.8009 F   0  0  0  0  0  0  0  0  0  0  0  0
   -9.0815    1.4401   -3.1755 F   0  0  0  0  0  0  0  0  0  0  0  0
   -7.3086   -2.3672    1.9675 Cl  0  0  0  0  0  0  0  0  0  0  0  0
   -0.0074    3.3479    0.3555 C   0  0  0  0  0  0  0  0  0  0  0  0
    2.4501    1.6920    1.3212 H   0  0  0  0  0  0  0  0  0  0  0  0
    2.3942    2.1269   -0.4118 H   0  0  0  0  0  0  0  0  0  0  0  0
    2.8563    0.4975    0.0728 H   0  0  0  0  0  0  0  0  0  0  0  0
   -2.4230    2.1829    0.2853 H   0  0  0  0  0  0  0  0  0  0  0  0
   -1.1173   -1.9250    0.2349 H   0  0  0  0  0  0  0  0  0  0  0  0
    1.2113   -1.1913    0.2513 H   0  0  0  0  0  0  0  0  0  0  0  0
   -3.3513   -1.4351    0.2902 H   0  0  0  0  0  0  0  0  0  0  0  0
   -5.3163   -1.3066    1.0695 H   0  0  0  0  0  0  0  0  0  0  0  0
   -9.9130   -1.5735    1.2242 H   0  0  0  0  0  0  0  0  0  0  0  0
  -10.7311    0.1513   -0.3380 H   0  0  0  0  0  0  0  0  0  0  0  0
   -6.6764    1.2738   -1.2537 H   0  0  0  0  0  0  0  0  0  0  0  0
    0.4656    3.6806   -0.5736 H   0  0  0  0  0  0  0  0  0  0  0  0
    0.6492    3.5767    1.2012 H   0  0  0  0  0  0  0  0  0  0  0  0
   -0.9236    3.9311    0.4936 H   0  0  0  0  0  0  0  0  0  0  0  0
  1  2  1  0  0  0  0
  1 24  1  0  0  0  0
  1 25  1  0  0  0  0
  1 26  1  0  0  0  0
  2  3  2  0  0  0  0
  2  7  1  0  0  0  0
  3  4  1  0  0  0  0
  3 23  1  0  0  0  0
  4  5  2  0  0  0  0
  4 27  1  0  0  0  0
  5  6  1  0  0  0  0
  5  8  1  0  0  0  0
  6  7  2  0  0  0  0
  6 28  1  0  0  0  0
  7 29  1  0  0  0  0
  8  9  1  0  0  0  0
  8 30  1  0  0  0  0
  9 10  2  0  0  0  0
  9 11  1  0  0  0  0
 11 12  1  0  0  0  0
 11 31  1  0  0  0  0
 12 13  2  0  0  0  0
 12 17  1  0  0  0  0
 13 14  1  0  0  0  0
 13 22  1  0  0  0  0
 14 15  2  0  0  0  0
 14 32  1  0  0  0  0
 15 16  1  0  0  0  0
 15 33  1  0  0  0  0
 16 17  2  0  0  0  0
 16 18  1  0  0  0  0
 17 34  1  0  0  0  0
 18 19  1  0  0  0  0
 18 20  1  0  0  0  0
 18 21  1  0  0  0  0
 23 35  1  0  0  0  0
 23 36  1  0  0  0  0
 23 37  1  0  0  0  0
M  END
