
 OpenBabel10072616333D

 48 50  0  0  0  0  0  0  0  0999 V2000
    2.7925    0.7247   -1.9006 C   0  0  0  0  0  0  0  0  0  0  0  0
    3.1288    1.9470   -1.0599 C   0  0  0  0  0  0  0  0  0  0  0  0
    3.9541    1.6180    0.1840 C   0  0  0  0  0  0  0  0  0  0  0  0
    5.2972    1.1581   -0.1054 N   0  0  0  0  0  0  0  0  0  0  0  0
    6.3462    1.9760   -0.4297 C   0  0  0  0  0  0  0  0  0  0  0  0
    7.4582    1.2980   -0.6017 N   0  0  0  0  0  0  0  0  0  0  0  0
    7.1139   -0.0154   -0.3599 C   0  0  0  0  0  0  0  0  0  0  0  0
    5.7639   -0.1336   -0.0541 C   0  0  0  0  0  0  0  0  0  0  0  0
    5.1686   -1.3678    0.2274 C   0  0  0  0  0  0  0  0  0  0  0  0
    5.9804   -2.5224    0.1787 C   0  0  0  0  0  0  0  0  0  0  0  0
    7.3549   -2.4366   -0.1572 C   0  0  0  0  0  0  0  0  0  0  0  0
    7.9261   -1.1697   -0.4003 C   0  0  0  0  0  0  0  0  0  0  0  0
    9.3354   -0.9890   -0.6245 N   0  0  0  0  0  0  0  0  0  0  0  0
   10.2610   -0.6876    0.7736 S   0  0  0  0  0  0  0  0  0  0  0  0
   11.2566    0.2972    0.4062 O   0  0  0  0  0  0  0  0  0  0  0  0
    9.4097   -0.5217    1.9313 O   0  0  0  0  0  0  0  0  0  0  0  0
   11.1525   -2.2184    0.9741 C   0  0  0  0  0  0  0  0  0  0  0  0
   11.9481   -2.6922   -0.0725 C   0  0  0  0  0  0  0  0  0  0  0  0
   12.6632   -3.8788    0.0897 C   0  0  0  0  0  0  0  0  0  0  0  0
   12.5948   -4.5796    1.2974 C   0  0  0  0  0  0  0  0  0  0  0  0
   11.8017   -4.1077    2.3564 C   0  0  0  0  0  0  0  0  0  0  0  0
   11.0787   -2.9150    2.1853 C   0  0  0  0  0  0  0  0  0  0  0  0
   11.7298   -4.8469    3.6712 C   0  0  0  0  0  0  0  0  0  0  0  0
   12.3415   -6.0644    3.6464 F   0  0  0  0  0  0  0  0  0  0  0  0
   12.3131   -4.1555    4.6880 F   0  0  0  0  0  0  0  0  0  0  0  0
   10.4473   -5.0832    4.0640 F   0  0  0  0  0  0  0  0  0  0  0  0
    8.1973   -3.6828   -0.2389 C   0  0  0  0  0  0  0  0  0  0  0  0
    5.3261   -3.8548    0.4532 C   0  0  0  0  0  0  0  0  0  0  0  0
    2.1297    1.0068   -2.7247 H   0  0  0  0  0  0  0  0  0  0  0  0
    2.2817   -0.0360   -1.3024 H   0  0  0  0  0  0  0  0  0  0  0  0
    3.6910    0.2783   -2.3365 H   0  0  0  0  0  0  0  0  0  0  0  0
    2.1908    2.4150   -0.7382 H   0  0  0  0  0  0  0  0  0  0  0  0
    3.6534    2.6798   -1.6840 H   0  0  0  0  0  0  0  0  0  0  0  0
    3.4503    0.8652    0.7991 H   0  0  0  0  0  0  0  0  0  0  0  0
    4.0568    2.5177    0.8029 H   0  0  0  0  0  0  0  0  0  0  0  0
    6.2441    3.0495   -0.5276 H   0  0  0  0  0  0  0  0  0  0  0  0
    4.1126   -1.4383    0.4707 H   0  0  0  0  0  0  0  0  0  0  0  0
    9.5023   -0.1869   -1.2425 H   0  0  0  0  0  0  0  0  0  0  0  0
   12.0143   -2.1422   -1.0086 H   0  0  0  0  0  0  0  0  0  0  0  0
   13.2826   -4.2533   -0.7228 H   0  0  0  0  0  0  0  0  0  0  0  0
   13.1720   -5.4975    1.4091 H   0  0  0  0  0  0  0  0  0  0  0  0
   10.4681   -2.5332    3.0034 H   0  0  0  0  0  0  0  0  0  0  0  0
    7.6412   -4.5062   -0.6981 H   0  0  0  0  0  0  0  0  0  0  0  0
    8.5189   -3.9854    0.7614 H   0  0  0  0  0  0  0  0  0  0  0  0
    9.0783   -3.5379   -0.8702 H   0  0  0  0  0  0  0  0  0  0  0  0
    4.3461   -3.7311    0.9270 H   0  0  0  0  0  0  0  0  0  0  0  0
    5.9362   -4.4532    1.1372 H   0  0  0  0  0  0  0  0  0  0  0  0
    5.1835   -4.4005   -0.4850 H   0  0  0  0  0  0  0  0  0  0  0  0
  1  2  1  0  0  0  0
  1 29  1  0  0  0  0
  1 30  1  0  0  0  0
  1 31  1  0  0  0  0
  2  3  1  0  0  0  0
  2 32  1  0  0  0  0
  2 33  1  0  0  0  0
  3  4  1  0  0  0  0
  3 34  1  0  0  0  0
  3 35  1  0  0  0  0
  4  5  1  0  0  0  0
  4  8  1  0  0  0  0
  5  6  2  0  0  0  0
  5 36  1  0  0  0  0
  6  7  1  0  0  0  0
  7  8  2  0  0  0  0
  7 12  1  0  0  0  0
  8  9  1  0  0  0  0
  9 10  2  0  0  0  0
  9 37  1  0  0  0  0
 10 11  1  0  0  0  0
 10 28  1  0  0  0  0
 11 12  2  0  0  0  0
 11 27  1  0  0  0  0
 12 13  1  0  0  0  0
 13 14  1  0  0  0  0
 13 38  1  0  0  0  0
 14 15  2  0  0  0  0
 14 16  2  0  0  0  0
 14 17  1  0  0  0  0
 17 18  2  0  0  0  0
 17 22  1  0  0  0  0
 18 19  1  0  0  0  0
 18 39  1  0  0  0  0
 19 20  2  0  0  0  0
 19 40  1  0  0  0  0
 20 21  1  0  0  0  0
 20 41  1  0  0  0  0
 21 22  2  0  0  0  0
 21 23  1  0  0  0  0
 22 42  1  0  0  0  0
 23 24  1  0  0  0  0
 23 25  1  0  0  0  0
 23 26  1  0  0  0  0
 27 43  1  0  0  0  0
 27 44  1  0  0  0  0
 27 45  1  0  0  0  0
 28 46  1  0  0  0  0
 28 47  1  0  0  0  0
 28 48  1  0  0  0  0
M  END
