
 OpenBabel10072620103D

 41 43  0  0  0  0  0  0  0  0999 V2000
   -5.0835    2.4392   -6.5447 C   0  0  0  0  0  0  0  0  0  0  0  0
   -4.7451    1.9529   -5.1663 C   0  0  0  0  0  0  0  0  0  0  0  0
   -3.5251    2.3055   -4.5741 C   0  0  0  0  0  0  0  0  0  0  0  0
   -3.1926    1.8336   -3.3038 C   0  0  0  0  0  0  0  0  0  0  0  0
   -4.0837    0.9972   -2.6253 C   0  0  0  0  0  0  0  0  0  0  0  0
   -5.2887    0.6106   -3.2170 C   0  0  0  0  0  0  0  0  0  0  0  0
   -5.6162    1.0909   -4.4859 C   0  0  0  0  0  0  0  0  0  0  0  0
   -3.6377    0.3617   -1.0231 S   0  0  0  0  0  0  0  0  0  0  0  0
   -4.3406   -0.8877   -0.8206 O   0  0  0  0  0  0  0  0  0  0  0  0
   -2.1971    0.4368   -0.9131 O   0  0  0  0  0  0  0  0  0  0  0  0
   -4.2449    1.5338    0.0382 N   0  0  0  0  0  0  0  0  0  0  0  0
   -5.6360    1.8255    0.0104 C   0  0  0  0  0  0  0  0  0  0  0  0
   -6.5592    0.9102    0.5190 C   0  0  0  0  0  0  0  0  0  0  0  0
   -7.9284    1.1726    0.4268 C   0  0  0  0  0  0  0  0  0  0  0  0
   -8.3637    2.3595   -0.1691 C   0  0  0  0  0  0  0  0  0  0  0  0
   -7.4408    3.2736   -0.6896 C   0  0  0  0  0  0  0  0  0  0  0  0
   -6.0738    3.0068   -0.5920 C   0  0  0  0  0  0  0  0  0  0  0  0
  -10.1039    2.6642   -0.3785 S   0  0  0  0  0  0  0  0  0  0  0  0
  -10.2383    3.4876   -1.5655 O   0  0  0  0  0  0  0  0  0  0  0  0
  -10.8248    1.4140   -0.2870 O   0  0  0  0  0  0  0  0  0  0  0  0
  -10.4784    3.6718    0.8858 N   0  0  0  0  0  0  0  0  0  0  0  0
  -10.7255    3.1277    2.1522 C   0  0  0  0  0  0  0  0  0  0  0  0
  -10.2984    1.9494    2.5282 N   0  0  0  0  0  0  0  0  0  0  0  0
  -10.7380    1.6894    3.8112 C   0  0  0  0  0  0  0  0  0  0  0  0
  -11.4423    2.7064    4.4167 C   0  0  0  0  0  0  0  0  0  0  0  0
  -11.5827    4.0275    3.3322 S   0  0  0  0  0  0  0  0  0  0  0  0
   -4.6305    3.4179   -6.7332 H   0  0  0  0  0  0  0  0  0  0  0  0
   -6.1655    2.5554   -6.6619 H   0  0  0  0  0  0  0  0  0  0  0  0
   -4.7188    1.7314   -7.2950 H   0  0  0  0  0  0  0  0  0  0  0  0
   -2.8238    2.9458   -5.1055 H   0  0  0  0  0  0  0  0  0  0  0  0
   -2.2376    2.1097   -2.8625 H   0  0  0  0  0  0  0  0  0  0  0  0
   -5.9736   -0.0587   -2.7002 H   0  0  0  0  0  0  0  0  0  0  0  0
   -6.5548    0.7848   -4.9440 H   0  0  0  0  0  0  0  0  0  0  0  0
   -3.6009    2.3182    0.1226 H   0  0  0  0  0  0  0  0  0  0  0  0
   -6.2204   -0.0127    0.9855 H   0  0  0  0  0  0  0  0  0  0  0  0
   -8.6445    0.4516    0.8174 H   0  0  0  0  0  0  0  0  0  0  0  0
   -7.7771    4.1819   -1.1849 H   0  0  0  0  0  0  0  0  0  0  0  0
   -5.3643    3.7119   -1.0153 H   0  0  0  0  0  0  0  0  0  0  0  0
  -10.8891    4.5645    0.6414 H   0  0  0  0  0  0  0  0  0  0  0  0
  -10.5116    0.7305    4.2646 H   0  0  0  0  0  0  0  0  0  0  0  0
  -11.8718    2.7341    5.4087 H   0  0  0  0  0  0  0  0  0  0  0  0
  1  2  1  0  0  0  0
  1 27  1  0  0  0  0
  1 28  1  0  0  0  0
  1 29  1  0  0  0  0
  2  3  2  0  0  0  0
  2  7  1  0  0  0  0
  3  4  1  0  0  0  0
  3 30  1  0  0  0  0
  4  5  2  0  0  0  0
  4 31  1  0  0  0  0
  5  6  1  0  0  0  0
  5  8  1  0  0  0  0
  6  7  2  0  0  0  0
  6 32  1  0  0  0  0
  7 33  1  0  0  0  0
  8  9  2  0  0  0  0
  8 10  2  0  0  0  0
  8 11  1  0  0  0  0
 11 12  1  0  0  0  0
 11 34  1  0  0  0  0
 12 13  2  0  0  0  0
 12 17  1  0  0  0  0
 13 14  1  0  0  0  0
 13 35  1  0  0  0  0
 14 15  2  0  0  0  0
 14 36  1  0  0  0  0
 15 16  1  0  0  0  0
 15 18  1  0  0  0  0
 16 17  2  0  0  0  0
 16 37  1  0  0  0  0
 17 38  1  0  0  0  0
 18 19  2  0  0  0  0
 18 20  2  0  0  0  0
 18 21  1  0  0  0  0
 21 22  1  0  0  0  0
 21 39  1  0  0  0  0
 22 23  2  0  0  0  0
 22 26  1  0  0  0  0
 23 24  1  0  0  0  0
 24 25  2  0  0  0  0
 24 40  1  0  0  0  0
 25 26  1  0  0  0  0
 25 41  1  0  0  0  0
M  END
