
 OpenBabel10072616333D

 46 48  0  0  0  0  0  0  0  0999 V2000
    1.1190   -0.1697    1.2214 C   0  0  0  0  0  0  0  0  0  0  0  0
   -0.2235    0.1464    0.5949 C   0  0  0  0  0  0  0  0  0  0  0  0
   -0.7370    1.4393    0.6360 C   0  0  0  0  0  0  0  0  0  0  0  0
   -1.9569    1.7391    0.0622 C   0  0  0  0  0  0  0  0  0  0  0  0
   -2.6992    0.7603   -0.5751 C   0  0  0  0  0  0  0  0  0  0  0  0
   -2.1941   -0.5325   -0.6010 C   0  0  0  0  0  0  0  0  0  0  0  0
   -0.9730   -0.8370   -0.0150 C   0  0  0  0  0  0  0  0  0  0  0  0
   -0.4749   -2.2197   -0.0450 N   0  0  0  0  0  0  0  0  0  0  0  0
   -1.4235   -3.3426   -0.0568 C   0  0  0  0  0  0  0  0  0  0  0  0
   -2.6072   -3.1717    0.5498 N   0  0  0  0  0  0  0  0  0  0  0  0
   -3.3971   -4.2524    0.5172 C   0  0  0  0  0  0  0  0  0  0  0  0
   -3.1307   -5.4363   -0.0683 N   0  0  0  0  0  0  0  0  0  0  0  0
   -1.9553   -5.5202   -0.6770 C   0  0  0  0  0  0  0  0  0  0  0  0
   -1.0459   -4.4888   -0.6813 C   0  0  0  0  0  0  0  0  0  0  0  0
   -4.6966   -4.1344    1.1942 N   0  0  0  0  0  0  0  0  0  0  0  0
   -4.8421   -3.2459    2.3562 C   0  0  0  0  0  0  0  0  0  0  0  0
   -6.0619   -2.6062    2.6651 C   0  0  0  0  0  0  0  0  0  0  0  0
   -6.1960   -1.7925    3.7658 C   0  0  0  0  0  0  0  0  0  0  0  0
   -5.1252   -1.5828    4.6382 C   0  0  0  0  0  0  0  0  0  0  0  0
   -3.9049   -2.1812    4.3455 C   0  0  0  0  0  0  0  0  0  0  0  0
   -3.7591   -2.9803    3.2369 C   0  0  0  0  0  0  0  0  0  0  0  0
   -5.3211   -0.8392    5.8544 C   0  0  0  0  0  0  0  0  0  0  0  0
   -5.5082   -0.2896    6.8474 N   0  0  0  0  0  0  0  0  0  0  0  0
   -3.1708   -1.9128   -1.4506 Br  0  0  0  0  0  0  0  0  0  0  0  0
   -2.4904    3.1607    0.1316 C   0  0  0  0  0  0  0  0  0  0  0  0
   -3.2678    3.5451    1.1798 C   0  0  0  0  0  0  0  0  0  0  0  0
   -3.6028    2.5529    2.2815 C   0  0  0  0  0  0  0  0  0  0  0  0
   -3.8013    4.9667    1.2492 C   0  0  0  0  0  0  0  0  0  0  0  0
   -4.2439    6.1460    1.3067 N   0  0  0  0  0  0  0  0  0  0  0  0
    1.5368    0.7227    1.6386 H   0  0  0  0  0  0  0  0  0  0  0  0
    1.7792   -0.5570    0.4738 H   0  0  0  0  0  0  0  0  0  0  0  0
    0.9891   -0.8980    1.9945 H   0  0  0  0  0  0  0  0  0  0  0  0
   -0.1978    2.1854    1.1024 H   0  0  0  0  0  0  0  0  0  0  0  0
   -3.6034    0.9853   -1.0189 H   0  0  0  0  0  0  0  0  0  0  0  0
    0.4941   -2.3937   -0.0572 H   0  0  0  0  0  0  0  0  0  0  0  0
   -1.7133   -6.3954   -1.1675 H   0  0  0  0  0  0  0  0  0  0  0  0
   -0.1237   -4.5805   -1.1355 H   0  0  0  0  0  0  0  0  0  0  0  0
   -5.4695   -4.6505    0.8693 H   0  0  0  0  0  0  0  0  0  0  0  0
   -6.8757   -2.7531    2.0477 H   0  0  0  0  0  0  0  0  0  0  0  0
   -7.1003   -1.3305    3.9499 H   0  0  0  0  0  0  0  0  0  0  0  0
   -3.0979   -2.0232    4.9690 H   0  0  0  0  0  0  0  0  0  0  0  0
   -2.8370   -3.3992    3.0385 H   0  0  0  0  0  0  0  0  0  0  0  0
   -2.2629    3.8343   -0.6164 H   0  0  0  0  0  0  0  0  0  0  0  0
   -3.1441    1.6109    2.0647 H   0  0  0  0  0  0  0  0  0  0  0  0
   -4.6640    2.4283    2.3387 H   0  0  0  0  0  0  0  0  0  0  0  0
   -3.2361    2.9213    3.2168 H   0  0  0  0  0  0  0  0  0  0  0  0
  1  2  1  0  0  0  0
  1 30  1  0  0  0  0
  1 31  1  0  0  0  0
  1 32  1  0  0  0  0
  2  3  2  0  0  0  0
  2  7  1  0  0  0  0
  3  4  1  0  0  0  0
  3 33  1  0  0  0  0
  4  5  2  0  0  0  0
  4 25  1  0  0  0  0
  5  6  1  0  0  0  0
  5 34  1  0  0  0  0
  6  7  2  0  0  0  0
  6 24  1  0  0  0  0
  7  8  1  0  0  0  0
  8  9  1  0  0  0  0
  8 35  1  0  0  0  0
  9 10  2  0  0  0  0
  9 14  1  0  0  0  0
 10 11  1  0  0  0  0
 11 12  2  0  0  0  0
 11 15  1  0  0  0  0
 12 13  1  0  0  0  0
 13 14  2  0  0  0  0
 13 36  1  0  0  0  0
 14 37  1  0  0  0  0
 15 16  1  0  0  0  0
 15 38  1  0  0  0  0
 16 17  2  0  0  0  0
 16 21  1  0  0  0  0
 17 18  1  0  0  0  0
 17 39  1  0  0  0  0
 18 19  2  0  0  0  0
 18 40  1  0  0  0  0
 19 20  1  0  0  0  0
 19 22  1  0  0  0  0
 20 21  2  0  0  0  0
 20 41  1  0  0  0  0
 21 42  1  0  0  0  0
 22 23  3  0  0  0  0
 25 26  2  3  0  0  0
 25 43  1  0  0  0  0
 26 27  1  0  0  0  0
 26 28  1  0  0  0  0
 27 44  1  0  0  0  0
 27 45  1  0  0  0  0
 27 46  1  0  0  0  0
 28 29  3  0  0  0  0
M  END
