
 OpenBabel10072619563D

 76 79  0  0  1  0  0  0  0  0999 V2000
   -1.6149   -5.6618    2.6135 C   0  0  0  0  0  0  0  0  0  0  0  0
   -0.7186   -4.4620    2.6793 C   0  0  0  0  0  0  0  0  0  0  0  0
   -0.2685   -3.8456    1.5033 C   0  0  0  0  0  0  0  0  0  0  0  0
    0.5303   -2.7018    1.5582 C   0  0  0  0  0  0  0  0  0  0  0  0
    0.8721   -2.1608    2.7974 C   0  0  0  0  0  0  0  0  0  0  0  0
    0.4043   -2.7500    3.9786 C   0  0  0  0  0  0  0  0  0  0  0  0
   -0.3842   -3.8987    3.9171 C   0  0  0  0  0  0  0  0  0  0  0  0
    1.9319   -0.7378    2.9405 S   0  0  0  0  0  0  0  0  0  0  0  0
    3.2386   -1.2654    3.2616 O   0  0  0  0  0  0  0  0  0  0  0  0
    1.2758    0.2181    3.8148 O   0  0  0  0  0  0  0  0  0  0  0  0
    1.9940   -0.0109    1.3669 N   0  0  0  0  0  0  0  0  0  0  0  0
    0.9875    1.1062    1.1202 C   0  0  0  0  0  0  0  0  0  0  0  0
   -0.4909    0.6588    1.0926 C   0  0  2  0  0  0  0  0  0  0  0  0
   -1.4409    1.8058    0.6478 C   0  0  2  0  0  0  0  0  0  0  0  0
   -2.9434    1.4224    0.6858 C   0  0  0  0  0  0  0  0  0  0  0  0
   -3.3499    0.3040   -0.2498 C   0  0  0  0  0  0  0  0  0  0  0  0
   -3.2697   -1.0308    0.1720 C   0  0  0  0  0  0  0  0  0  0  0  0
   -3.6259   -2.0700   -0.6873 C   0  0  0  0  0  0  0  0  0  0  0  0
   -4.0756   -1.7865   -1.9747 C   0  0  0  0  0  0  0  0  0  0  0  0
   -4.1662   -0.4637   -2.4046 C   0  0  0  0  0  0  0  0  0  0  0  0
   -3.8099    0.5778   -1.5457 C   0  0  0  0  0  0  0  0  0  0  0  0
   -1.1010    2.3679   -0.6560 N   0  0  0  0  0  0  0  0  0  0  0  0
   -0.6378    3.6395   -0.7931 C   0  0  0  0  0  0  0  0  0  0  0  0
   -0.2436    4.3426    0.1209 O   0  0  0  0  0  0  0  0  0  0  0  0
   -0.7067    4.0136   -2.0938 O   0  0  0  0  0  0  0  0  0  0  0  0
   -0.3837    5.3948   -2.3250 C   0  0  1  0  0  0  0  0  0  0  0  0
    1.1239    5.6187   -2.3312 C   0  0  0  0  0  0  0  0  0  0  0  0
    1.4918    6.1780   -3.5940 O   0  0  0  0  0  0  0  0  0  0  0  0
    0.4144    5.9832   -4.4980 C   0  0  2  0  0  0  0  0  0  0  0  0
   -0.8578    5.8819   -3.6884 C   0  0  1  0  0  0  0  0  0  0  0  0
   -1.7038    4.9416   -4.5097 C   0  0  0  0  0  0  0  0  0  0  0  0
   -0.6758    4.0298   -5.1492 C   0  0  0  0  0  0  0  0  0  0  0  0
    0.5483    4.7676   -5.2398 O   0  0  0  0  0  0  0  0  0  0  0  0
   -0.9361    0.2152    2.3796 O   0  0  0  0  0  0  0  0  0  0  0  0
    3.3763    0.4583    0.9849 C   0  0  0  0  0  0  0  0  0  0  0  0
    4.2557   -0.6552    0.3846 C   0  0  0  0  0  0  0  0  0  0  0  0
    3.6147   -1.3393   -0.8238 C   0  0  0  0  0  0  0  0  0  0  0  0
    5.6055   -0.0629   -0.0398 C   0  0  0  0  0  0  0  0  0  0  0  0
   -1.3615   -6.2885    1.7528 H   0  0  0  0  0  0  0  0  0  0  0  0
   -1.5085   -6.2793    3.5113 H   0  0  0  0  0  0  0  0  0  0  0  0
   -2.6590   -5.3442    2.5291 H   0  0  0  0  0  0  0  0  0  0  0  0
   -0.5407   -4.2554    0.5330 H   0  0  0  0  0  0  0  0  0  0  0  0
    0.8586   -2.2419    0.6330 H   0  0  0  0  0  0  0  0  0  0  0  0
    0.6556   -2.3198    4.9467 H   0  0  0  0  0  0  0  0  0  0  0  0
   -0.7374   -4.3538    4.8406 H   0  0  0  0  0  0  0  0  0  0  0  0
    1.2228    1.5380    0.1393 H   0  0  0  0  0  0  0  0  0  0  0  0
    1.1557    1.8928    1.8673 H   0  0  0  0  0  0  0  0  0  0  0  0
   -0.5793   -0.1802    0.3935 H   0  0  0  0  0  0  0  0  0  0  0  0
   -1.3363    2.6081    1.3933 H   0  0  0  0  0  0  0  0  0  0  0  0
   -3.2361    1.1567    1.7091 H   0  0  0  0  0  0  0  0  0  0  0  0
   -3.5405    2.3119    0.4394 H   0  0  0  0  0  0  0  0  0  0  0  0
   -2.9252   -1.2697    1.1777 H   0  0  0  0  0  0  0  0  0  0  0  0
   -3.5517   -3.0999   -0.3484 H   0  0  0  0  0  0  0  0  0  0  0  0
   -4.3597   -2.5969   -2.6407 H   0  0  0  0  0  0  0  0  0  0  0  0
   -4.5200   -0.2447   -3.4087 H   0  0  0  0  0  0  0  0  0  0  0  0
   -3.9048    1.6043   -1.8928 H   0  0  0  0  0  0  0  0  0  0  0  0
   -1.3945    1.8931   -1.5010 H   0  0  0  0  0  0  0  0  0  0  0  0
   -0.8685    6.0052   -1.5518 H   0  0  0  0  0  0  0  0  0  0  0  0
    1.6896    4.6931   -2.1829 H   0  0  0  0  0  0  0  0  0  0  0  0
    1.4175    6.3281   -1.5522 H   0  0  0  0  0  0  0  0  0  0  0  0
    0.3895    6.8106   -5.2145 H   0  0  0  0  0  0  0  0  0  0  0  0
   -1.3195    6.8692   -3.5698 H   0  0  0  0  0  0  0  0  0  0  0  0
   -2.4662    4.3987   -3.9435 H   0  0  0  0  0  0  0  0  0  0  0  0
   -2.2193    5.5099   -5.2940 H   0  0  0  0  0  0  0  0  0  0  0  0
   -0.9783    3.7024   -6.1486 H   0  0  0  0  0  0  0  0  0  0  0  0
   -0.4870    3.1385   -4.5424 H   0  0  0  0  0  0  0  0  0  0  0  0
   -0.3938    0.6543    3.0720 H   0  0  0  0  0  0  0  0  0  0  0  0
    3.3036    1.2679    0.2464 H   0  0  0  0  0  0  0  0  0  0  0  0
    3.8590    0.9083    1.8621 H   0  0  0  0  0  0  0  0  0  0  0  0
    4.4572   -1.4255    1.1372 H   0  0  0  0  0  0  0  0  0  0  0  0
    3.3027   -0.6094   -1.5789 H   0  0  0  0  0  0  0  0  0  0  0  0
    2.7430   -1.9269   -0.5273 H   0  0  0  0  0  0  0  0  0  0  0  0
    4.3239   -2.0314   -1.2938 H   0  0  0  0  0  0  0  0  0  0  0  0
    6.1020    0.4323    0.8015 H   0  0  0  0  0  0  0  0  0  0  0  0
    6.2743   -0.8498   -0.4063 H   0  0  0  0  0  0  0  0  0  0  0  0
    5.4802    0.6716   -0.8445 H   0  0  0  0  0  0  0  0  0  0  0  0
  1  2  1  0  0  0  0
  1 39  1  0  0  0  0
  1 40  1  0  0  0  0
  1 41  1  0  0  0  0
  2  3  2  0  0  0  0
  2  7  1  0  0  0  0
  3  4  1  0  0  0  0
  3 42  1  0  0  0  0
  4  5  2  0  0  0  0
  4 43  1  0  0  0  0
  5  6  1  0  0  0  0
  5  8  1  0  0  0  0
  6  7  2  0  0  0  0
  6 44  1  0  0  0  0
  7 45  1  0  0  0  0
  8  9  2  0  0  0  0
  8 10  2  0  0  0  0
  8 11  1  0  0  0  0
 11 12  1  0  0  0  0
 11 35  1  0  0  0  0
 12 13  1  0  0  0  0
 12 46  1  0  0  0  0
 12 47  1  0  0  0  0
 13 14  1  0  0  0  0
 13 34  1  0  0  0  0
 13 48  1  6  0  0  0
 14 15  1  0  0  0  0
 14 22  1  0  0  0  0
 14 49  1  1  0  0  0
 15 16  1  0  0  0  0
 15 50  1  0  0  0  0
 15 51  1  0  0  0  0
 16 17  2  0  0  0  0
 16 21  1  0  0  0  0
 17 18  1  0  0  0  0
 17 52  1  0  0  0  0
 18 19  2  0  0  0  0
 18 53  1  0  0  0  0
 19 20  1  0  0  0  0
 19 54  1  0  0  0  0
 20 21  2  0  0  0  0
 20 55  1  0  0  0  0
 21 56  1  0  0  0  0
 22 23  1  0  0  0  0
 22 57  1  0  0  0  0
 23 24  2  0  0  0  0
 23 25  1  0  0  0  0
 25 26  1  0  0  0  0
 26 27  1  0  0  0  0
 26 30  1  0  0  0  0
 26 58  1  1  0  0  0
 27 28  1  0  0  0  0
 27 59  1  0  0  0  0
 27 60  1  0  0  0  0
 28 29  1  0  0  0  0
 29 30  1  0  0  0  0
 29 33  1  0  0  0  0
 29 61  1  6  0  0  0
 30 31  1  0  0  0  0
 30 62  1  1  0  0  0
 31 32  1  0  0  0  0
 31 63  1  0  0  0  0
 31 64  1  0  0  0  0
 32 33  1  0  0  0  0
 32 65  1  0  0  0  0
 32 66  1  0  0  0  0
 34 67  1  0  0  0  0
 35 36  1  0  0  0  0
 35 68  1  0  0  0  0
 35 69  1  0  0  0  0
 36 37  1  0  0  0  0
 36 38  1  0  0  0  0
 36 70  1  0  0  0  0
 37 71  1  0  0  0  0
 37 72  1  0  0  0  0
 37 73  1  0  0  0  0
 38 74  1  0  0  0  0
 38 75  1  0  0  0  0
 38 76  1  0  0  0  0
M  END
