
 OpenBabel10072620073D

 46 47  0  0  0  0  0  0  0  0999 V2000
    4.5480    3.5259    3.3018 C   0  0  0  0  0  0  0  0  0  0  0  0
    4.4928    3.5074    1.7750 C   0  0  0  0  0  0  0  0  0  0  0  0
    5.8721    3.2621    1.1608 C   0  0  0  0  0  0  0  0  0  0  0  0
    3.4556    2.6157    1.2695 N   0  0  0  0  0  0  0  0  0  0  0  0
    3.4273    1.2320    1.2788 C   0  0  0  0  0  0  0  0  0  0  0  0
    2.3073    0.8289    0.7106 N   0  0  0  0  0  0  0  0  0  0  0  0
    1.5786    1.9255    0.3519 N   0  0  0  0  0  0  0  0  0  0  0  0
    2.2569    2.9893    0.7038 C   0  0  0  0  0  0  0  0  0  0  0  0
    1.7076    4.6224    0.5280 S   0  0  0  0  0  0  0  0  0  0  0  0
    0.0278    4.3467   -0.0827 C   0  0  0  0  0  0  0  0  0  0  0  0
    4.4511    0.3201    1.8701 C   0  0  0  0  0  0  0  0  0  0  0  0
    4.1400   -1.1508    1.5792 C   0  0  0  0  0  0  0  0  0  0  0  0
    5.0825   -2.0516    2.2369 N   0  0  0  0  0  0  0  0  0  0  0  0
    5.1681   -3.3576    1.7830 C   0  0  0  0  0  0  0  0  0  0  0  0
    4.6140   -3.7430    0.7635 O   0  0  0  0  0  0  0  0  0  0  0  0
    5.9410   -4.1209    2.6325 N   0  0  0  0  0  0  0  0  0  0  0  0
    6.0883   -5.5217    2.6200 C   0  0  0  0  0  0  0  0  0  0  0  0
    5.3261   -6.3723    1.8130 C   0  0  0  0  0  0  0  0  0  0  0  0
    5.4817   -7.7735    1.8657 C   0  0  0  0  0  0  0  0  0  0  0  0
    6.4179   -8.3116    2.7538 C   0  0  0  0  0  0  0  0  0  0  0  0
    7.1797   -7.4694    3.5681 C   0  0  0  0  0  0  0  0  0  0  0  0
    7.0171   -6.0835    3.5000 C   0  0  0  0  0  0  0  0  0  0  0  0
    6.6701  -10.0121    2.9091 Cl  0  0  0  0  0  0  0  0  0  0  0  0
    4.6402   -8.6535    0.9812 C   0  0  0  0  0  0  0  0  0  0  0  0
    3.7808   -7.9577    0.1826 F   0  0  0  0  0  0  0  0  0  0  0  0
    5.3832   -9.4167    0.1330 F   0  0  0  0  0  0  0  0  0  0  0  0
    3.8559   -9.5179    1.6836 F   0  0  0  0  0  0  0  0  0  0  0  0
    5.2151    4.3207    3.6527 H   0  0  0  0  0  0  0  0  0  0  0  0
    4.9217    2.5818    3.7068 H   0  0  0  0  0  0  0  0  0  0  0  0
    3.5563    3.7038    3.7317 H   0  0  0  0  0  0  0  0  0  0  0  0
    4.2167    4.5179    1.4600 H   0  0  0  0  0  0  0  0  0  0  0  0
    6.3841    2.4153    1.6242 H   0  0  0  0  0  0  0  0  0  0  0  0
    6.5138    4.1371    1.3151 H   0  0  0  0  0  0  0  0  0  0  0  0
    5.8029    3.0764    0.0836 H   0  0  0  0  0  0  0  0  0  0  0  0
   -0.5484    3.7432    0.6243 H   0  0  0  0  0  0  0  0  0  0  0  0
    0.0491    3.8485   -1.0557 H   0  0  0  0  0  0  0  0  0  0  0  0
   -0.4745    5.3109   -0.1997 H   0  0  0  0  0  0  0  0  0  0  0  0
    4.4868    0.4706    2.9548 H   0  0  0  0  0  0  0  0  0  0  0  0
    5.4454    0.5385    1.4724 H   0  0  0  0  0  0  0  0  0  0  0  0
    4.1546   -1.3336    0.4974 H   0  0  0  0  0  0  0  0  0  0  0  0
    3.1410   -1.4216    1.9439 H   0  0  0  0  0  0  0  0  0  0  0  0
    5.1159   -1.9771    3.2428 H   0  0  0  0  0  0  0  0  0  0  0  0
    6.5473   -3.6011    3.2490 H   0  0  0  0  0  0  0  0  0  0  0  0
    4.5834   -5.9658    1.1286 H   0  0  0  0  0  0  0  0  0  0  0  0
    7.9016   -7.8879    4.2664 H   0  0  0  0  0  0  0  0  0  0  0  0
    7.6203   -5.4559    4.1517 H   0  0  0  0  0  0  0  0  0  0  0  0
  1  2  1  0  0  0  0
  1 28  1  0  0  0  0
  1 29  1  0  0  0  0
  1 30  1  0  0  0  0
  2  3  1  0  0  0  0
  2  4  1  0  0  0  0
  2 31  1  0  0  0  0
  3 32  1  0  0  0  0
  3 33  1  0  0  0  0
  3 34  1  0  0  0  0
  4  5  1  0  0  0  0
  4  8  1  0  0  0  0
  5  6  2  0  0  0  0
  5 11  1  0  0  0  0
  6  7  1  0  0  0  0
  7  8  2  0  0  0  0
  8  9  1  0  0  0  0
  9 10  1  0  0  0  0
 10 35  1  0  0  0  0
 10 36  1  0  0  0  0
 10 37  1  0  0  0  0
 11 12  1  0  0  0  0
 11 38  1  0  0  0  0
 11 39  1  0  0  0  0
 12 13  1  0  0  0  0
 12 40  1  0  0  0  0
 12 41  1  0  0  0  0
 13 14  1  0  0  0  0
 13 42  1  0  0  0  0
 14 15  2  0  0  0  0
 14 16  1  0  0  0  0
 16 17  1  0  0  0  0
 16 43  1  0  0  0  0
 17 18  2  0  0  0  0
 17 22  1  0  0  0  0
 18 19  1  0  0  0  0
 18 44  1  0  0  0  0
 19 20  2  0  0  0  0
 19 24  1  0  0  0  0
 20 21  1  0  0  0  0
 20 23  1  0  0  0  0
 21 22  2  0  0  0  0
 21 45  1  0  0  0  0
 22 46  1  0  0  0  0
 24 25  1  0  0  0  0
 24 26  1  0  0  0  0
 24 27  1  0  0  0  0
M  END
