
 OpenBabel10072616413D

 73 76  0  0  1  0  0  0  0  0999 V2000
    1.3463    2.3443   -4.4275 C   0  0  0  0  0  0  0  0  0  0  0  0
   -0.0957    2.0829   -4.1106 C   0  0  0  0  0  0  0  0  0  0  0  0
   -0.7225    0.9016   -4.5264 C   0  0  0  0  0  0  0  0  0  0  0  0
   -2.0597    0.6673   -4.2086 C   0  0  0  0  0  0  0  0  0  0  0  0
   -2.7716    1.6234   -3.4746 C   0  0  0  0  0  0  0  0  0  0  0  0
   -2.1576    2.7995   -3.0450 C   0  0  0  0  0  0  0  0  0  0  0  0
   -0.8203    3.0253   -3.3665 C   0  0  0  0  0  0  0  0  0  0  0  0
   -4.4378    1.2551   -2.9826 S   0  0  0  0  0  0  0  0  0  0  0  0
   -5.3214    1.8259   -3.9786 O   0  0  0  0  0  0  0  0  0  0  0  0
   -4.4498   -0.1718   -2.7404 O   0  0  0  0  0  0  0  0  0  0  0  0
   -4.6547    2.0415   -1.6069 N   0  0  0  0  0  0  0  0  0  0  0  0
   -5.3884    1.6401   -0.6321 C   0  0  0  0  0  0  0  0  0  0  0  0
   -5.4617    2.5311    0.6346 C   0  0  0  0  0  0  0  0  0  0  0  0
   -5.3550    3.9765    0.3463 N   0  0  0  0  0  0  0  0  0  0  0  0
   -5.0265    4.7296    1.5816 C   0  0  0  0  0  0  0  0  0  0  0  0
   -6.2041    4.8950    2.5574 C   0  0  0  0  0  0  0  0  0  0  0  0
   -7.3297    5.4991    1.9160 O   0  0  0  0  0  0  0  0  0  0  0  0
   -7.7436    4.7453    0.7737 C   0  0  0  0  0  0  0  0  0  0  0  0
   -6.5869    4.5700   -0.2285 C   0  0  0  0  0  0  0  0  0  0  0  0
   -6.1417    0.4167   -0.5658 N   0  0  0  0  0  0  0  0  0  0  0  0
   -7.1386    0.0537   -1.5901 C   0  0  0  0  0  0  0  0  0  0  0  0
   -8.2482   -0.5879   -0.7654 C   0  0  0  0  0  0  0  0  0  0  0  0
   -7.5561   -1.1646    0.4180 N   0  0  0  0  0  0  0  0  0  0  0  0
   -6.3404   -0.3728    0.6672 C   0  0  3  0  0  0  0  0  0  0  0  0
   -5.1442   -1.3122    0.9696 C   0  0  0  0  0  0  0  0  0  0  0  0
   -4.8313   -2.3329   -0.1283 C   0  0  0  0  0  0  0  0  0  0  0  0
   -3.8728   -0.5608    1.3790 C   0  0  0  0  0  0  0  0  0  0  0  0
   -8.5123   -1.4261    1.7903 S   0  0  0  0  0  0  0  0  0  0  0  0
   -7.6639   -1.9426    2.8372 O   0  0  0  0  0  0  0  0  0  0  0  0
   -9.2823   -0.2144    1.9779 O   0  0  0  0  0  0  0  0  0  0  0  0
   -9.5663   -2.7350    1.2372 C   0  0  0  0  0  0  0  0  0  0  0  0
   -8.9713   -3.8832    0.7041 C   0  0  0  0  0  0  0  0  0  0  0  0
   -9.7724   -4.8883    0.1666 C   0  0  0  0  0  0  0  0  0  0  0  0
  -11.1664   -4.7532    0.1578 C   0  0  0  0  0  0  0  0  0  0  0  0
  -11.7511   -3.6131    0.7299 C   0  0  0  0  0  0  0  0  0  0  0  0
  -10.9536   -2.5955    1.2635 C   0  0  0  0  0  0  0  0  0  0  0  0
  -12.0160   -5.8427   -0.4320 C   0  0  0  0  0  0  0  0  0  0  0  0
    1.7359    1.6211   -5.1495 H   0  0  0  0  0  0  0  0  0  0  0  0
    1.9508    2.2825   -3.5181 H   0  0  0  0  0  0  0  0  0  0  0  0
    1.4594    3.3410   -4.8641 H   0  0  0  0  0  0  0  0  0  0  0  0
   -0.1712    0.1527   -5.0921 H   0  0  0  0  0  0  0  0  0  0  0  0
   -2.5292   -0.2635   -4.5225 H   0  0  0  0  0  0  0  0  0  0  0  0
   -2.7009    3.5380   -2.4612 H   0  0  0  0  0  0  0  0  0  0  0  0
   -0.3398    3.9400   -3.0255 H   0  0  0  0  0  0  0  0  0  0  0  0
   -4.6153    2.2249    1.2583 H   0  0  0  0  0  0  0  0  0  0  0  0
   -6.3819    2.3189    1.1796 H   0  0  0  0  0  0  0  0  0  0  0  0
   -4.6818    5.7247    1.2757 H   0  0  0  0  0  0  0  0  0  0  0  0
   -4.1817    4.2620    2.0993 H   0  0  0  0  0  0  0  0  0  0  0  0
   -5.9029    5.5468    3.3842 H   0  0  0  0  0  0  0  0  0  0  0  0
   -6.5087    3.9343    2.9884 H   0  0  0  0  0  0  0  0  0  0  0  0
   -8.5643    5.2957    0.3022 H   0  0  0  0  0  0  0  0  0  0  0  0
   -8.1430    3.7796    1.1023 H   0  0  0  0  0  0  0  0  0  0  0  0
   -6.3125    5.5666   -0.5982 H   0  0  0  0  0  0  0  0  0  0  0  0
   -6.9249    4.0068   -1.1040 H   0  0  0  0  0  0  0  0  0  0  0  0
   -6.7285   -0.6823   -2.2856 H   0  0  0  0  0  0  0  0  0  0  0  0
   -7.4930    0.9371   -2.1295 H   0  0  0  0  0  0  0  0  0  0  0  0
   -8.7773   -1.3567   -1.3320 H   0  0  0  0  0  0  0  0  0  0  0  0
   -8.9651    0.1808   -0.4636 H   0  0  0  0  0  0  0  0  0  0  0  0
   -6.5050    0.3065    1.5060 H   0  0  0  0  0  0  0  0  0  0  0  0
   -5.4217   -1.9077    1.8474 H   0  0  0  0  0  0  0  0  0  0  0  0
   -4.4906   -1.8614   -1.0505 H   0  0  0  0  0  0  0  0  0  0  0  0
   -5.7075   -2.9495   -0.3543 H   0  0  0  0  0  0  0  0  0  0  0  0
   -4.0332   -3.0093    0.2014 H   0  0  0  0  0  0  0  0  0  0  0  0
   -3.4164   -0.0188    0.5441 H   0  0  0  0  0  0  0  0  0  0  0  0
   -3.1243   -1.2661    1.7615 H   0  0  0  0  0  0  0  0  0  0  0  0
   -4.0856    0.1480    2.1870 H   0  0  0  0  0  0  0  0  0  0  0  0
   -7.8899   -3.9984    0.6949 H   0  0  0  0  0  0  0  0  0  0  0  0
   -9.3054   -5.7769   -0.2547 H   0  0  0  0  0  0  0  0  0  0  0  0
  -12.8351   -3.5111    0.7522 H   0  0  0  0  0  0  0  0  0  0  0  0
  -11.4208   -1.7112    1.6913 H   0  0  0  0  0  0  0  0  0  0  0  0
  -11.4814   -6.3356   -1.2518 H   0  0  0  0  0  0  0  0  0  0  0  0
  -12.9447   -5.4377   -0.8477 H   0  0  0  0  0  0  0  0  0  0  0  0
  -12.2633   -6.5908    0.3268 H   0  0  0  0  0  0  0  0  0  0  0  0
  1  2  1  0  0  0  0
  1 38  1  0  0  0  0
  1 39  1  0  0  0  0
  1 40  1  0  0  0  0
  2  3  2  0  0  0  0
  2  7  1  0  0  0  0
  3  4  1  0  0  0  0
  3 41  1  0  0  0  0
  4  5  2  0  0  0  0
  4 42  1  0  0  0  0
  5  6  1  0  0  0  0
  5  8  1  0  0  0  0
  6  7  2  0  0  0  0
  6 43  1  0  0  0  0
  7 44  1  0  0  0  0
  8  9  2  0  0  0  0
  8 10  2  0  0  0  0
  8 11  1  0  0  0  0
 11 12  2  0  0  0  0
 12 13  1  0  0  0  0
 12 20  1  0  0  0  0
 13 14  1  0  0  0  0
 13 45  1  0  0  0  0
 13 46  1  0  0  0  0
 14 15  1  0  0  0  0
 14 19  1  0  0  0  0
 15 16  1  0  0  0  0
 15 47  1  0  0  0  0
 15 48  1  0  0  0  0
 16 17  1  0  0  0  0
 16 49  1  0  0  0  0
 16 50  1  0  0  0  0
 17 18  1  0  0  0  0
 18 19  1  0  0  0  0
 18 51  1  0  0  0  0
 18 52  1  0  0  0  0
 19 53  1  0  0  0  0
 19 54  1  0  0  0  0
 20 21  1  0  0  0  0
 20 24  1  0  0  0  0
 21 22  1  0  0  0  0
 21 55  1  0  0  0  0
 21 56  1  0  0  0  0
 22 23  1  0  0  0  0
 22 57  1  0  0  0  0
 22 58  1  0  0  0  0
 23 24  1  0  0  0  0
 23 28  1  0  0  0  0
 24 25  1  0  0  0  0
 24 59  1  0  0  0  0
 25 26  1  0  0  0  0
 25 27  1  0  0  0  0
 25 60  1  0  0  0  0
 26 61  1  0  0  0  0
 26 62  1  0  0  0  0
 26 63  1  0  0  0  0
 27 64  1  0  0  0  0
 27 65  1  0  0  0  0
 27 66  1  0  0  0  0
 28 29  2  0  0  0  0
 28 30  2  0  0  0  0
 28 31  1  0  0  0  0
 31 32  2  0  0  0  0
 31 36  1  0  0  0  0
 32 33  1  0  0  0  0
 32 67  1  0  0  0  0
 33 34  2  0  0  0  0
 33 68  1  0  0  0  0
 34 35  1  0  0  0  0
 34 37  1  0  0  0  0
 35 36  2  0  0  0  0
 35 69  1  0  0  0  0
 36 70  1  0  0  0  0
 37 71  1  0  0  0  0
 37 72  1  0  0  0  0
 37 73  1  0  0  0  0
M  END
