
 OpenBabel10072619433D

 39 41  0  0  0  0  0  0  0  0999 V2000
    3.5827    0.2384    1.1520 C   0  0  0  0  0  0  0  0  0  0  0  0
    2.4156   -0.1842    0.2769 C   0  0  0  0  0  0  0  0  0  0  0  0
    2.7900   -1.1876   -0.7021 N   0  0  0  0  0  0  0  0  0  0  0  0
    3.2913   -0.9468   -1.9635 C   0  0  0  0  0  0  0  0  0  0  0  0
    3.4931   -2.0765   -2.6100 N   0  0  0  0  0  0  0  0  0  0  0  0
    3.0863   -3.0726   -1.7639 C   0  0  0  0  0  0  0  0  0  0  0  0
    2.6542   -2.5497   -0.5478 C   0  0  0  0  0  0  0  0  0  0  0  0
    2.1922   -3.3549    0.5009 C   0  0  0  0  0  0  0  0  0  0  0  0
    2.1571   -4.7349    0.2762 C   0  0  0  0  0  0  0  0  0  0  0  0
    2.5870   -5.2706   -0.9432 C   0  0  0  0  0  0  0  0  0  0  0  0
    3.0534   -4.4544   -1.9812 C   0  0  0  0  0  0  0  0  0  0  0  0
    2.5003   -7.0258   -1.2186 S   0  0  0  0  0  0  0  0  0  0  0  0
    1.6272   -7.5996   -0.2174 O   0  0  0  0  0  0  0  0  0  0  0  0
    2.2555   -7.2345   -2.6302 O   0  0  0  0  0  0  0  0  0  0  0  0
    4.0906   -7.5296   -0.9378 N   0  0  0  0  0  0  0  0  0  0  0  0
    4.7083   -7.1769    0.2949 C   0  0  0  0  0  0  0  0  0  0  0  0
    4.2273   -7.6805    1.5032 C   0  0  0  0  0  0  0  0  0  0  0  0
    4.7946   -7.2638    2.7080 C   0  0  0  0  0  0  0  0  0  0  0  0
    5.8560   -6.3597    2.7044 C   0  0  0  0  0  0  0  0  0  0  0  0
    6.3482   -5.8667    1.4960 C   0  0  0  0  0  0  0  0  0  0  0  0
    5.7692   -6.2698    0.2908 C   0  0  0  0  0  0  0  0  0  0  0  0
    3.5381    0.4083   -2.5178 C   0  0  0  0  0  0  0  0  0  0  0  0
    3.2561    0.9727    1.8949 H   0  0  0  0  0  0  0  0  0  0  0  0
    4.3826    0.6919    0.5585 H   0  0  0  0  0  0  0  0  0  0  0  0
    4.0093   -0.6185    1.6831 H   0  0  0  0  0  0  0  0  0  0  0  0
    1.9981    0.6757   -0.2575 H   0  0  0  0  0  0  0  0  0  0  0  0
    1.6093   -0.5939    0.8937 H   0  0  0  0  0  0  0  0  0  0  0  0
    1.8632   -2.9370    1.4463 H   0  0  0  0  0  0  0  0  0  0  0  0
    1.7934   -5.3905    1.0658 H   0  0  0  0  0  0  0  0  0  0  0  0
    3.3701   -4.8609   -2.9356 H   0  0  0  0  0  0  0  0  0  0  0  0
    4.6552   -7.4677   -1.7837 H   0  0  0  0  0  0  0  0  0  0  0  0
    3.4097   -8.3970    1.5175 H   0  0  0  0  0  0  0  0  0  0  0  0
    4.4055   -7.6455    3.6488 H   0  0  0  0  0  0  0  0  0  0  0  0
    6.3009   -6.0427    3.6443 H   0  0  0  0  0  0  0  0  0  0  0  0
    7.1775   -5.1631    1.4951 H   0  0  0  0  0  0  0  0  0  0  0  0
    6.1463   -5.8565   -0.6404 H   0  0  0  0  0  0  0  0  0  0  0  0
    4.1212    1.0222   -1.8267 H   0  0  0  0  0  0  0  0  0  0  0  0
    2.5905    0.9140   -2.7255 H   0  0  0  0  0  0  0  0  0  0  0  0
    4.0970    0.3394   -3.4561 H   0  0  0  0  0  0  0  0  0  0  0  0
  1  2  1  0  0  0  0
  1 23  1  0  0  0  0
  1 24  1  0  0  0  0
  1 25  1  0  0  0  0
  2  3  1  0  0  0  0
  2 26  1  0  0  0  0
  2 27  1  0  0  0  0
  3  4  1  0  0  0  0
  3  7  1  0  0  0  0
  4  5  2  0  0  0  0
  4 22  1  0  0  0  0
  5  6  1  0  0  0  0
  6  7  2  0  0  0  0
  6 11  1  0  0  0  0
  7  8  1  0  0  0  0
  8  9  2  0  0  0  0
  8 28  1  0  0  0  0
  9 10  1  0  0  0  0
  9 29  1  0  0  0  0
 10 11  2  0  0  0  0
 10 12  1  0  0  0  0
 11 30  1  0  0  0  0
 12 13  2  0  0  0  0
 12 14  2  0  0  0  0
 12 15  1  0  0  0  0
 15 16  1  0  0  0  0
 15 31  1  0  0  0  0
 16 17  2  0  0  0  0
 16 21  1  0  0  0  0
 17 18  1  0  0  0  0
 17 32  1  0  0  0  0
 18 19  2  0  0  0  0
 18 33  1  0  0  0  0
 19 20  1  0  0  0  0
 19 34  1  0  0  0  0
 20 21  2  0  0  0  0
 20 35  1  0  0  0  0
 21 36  1  0  0  0  0
 22 37  1  0  0  0  0
 22 38  1  0  0  0  0
 22 39  1  0  0  0  0
M  END
