
 OpenBabel10072620163D

 34 33  0  0  0  0  0  0  0  0999 V2000
    0.9065    0.1121   -0.0515 C   0  0  0  0  0  0  0  0  0  0  0  0
    0.3273   -1.1000   -0.7885 C   0  0  0  0  0  0  0  0  0  0  0  0
    0.8121   -2.4676   -0.3010 C   0  0  0  0  0  0  0  0  0  0  0  0
    0.4946   -2.7404    1.1690 C   0  0  0  0  0  0  0  0  0  0  0  0
    0.9016   -4.1101    1.4721 N   0  0  0  0  0  0  0  0  0  0  0  0
    0.6480   -4.5740    2.6352 C   0  0  0  0  0  0  0  0  0  0  0  0
    0.0424   -3.9906    3.6926 N   0  0  0  0  0  0  0  0  0  0  0  0
    0.9978   -5.8406    2.9447 N   0  0  0  0  0  0  0  0  0  0  0  0
    2.4343    0.2021   -0.0197 C   0  0  0  0  0  0  0  0  0  0  0  0
    3.0717    0.2719   -1.4070 C   0  0  0  0  0  0  0  0  0  0  0  0
    4.5083    0.4711   -1.2344 N   0  0  0  0  0  0  0  0  0  0  0  0
    5.2262    0.6402   -2.2777 C   0  0  0  0  0  0  0  0  0  0  0  0
    4.8749    0.6645   -3.5820 N   0  0  0  0  0  0  0  0  0  0  0  0
    6.5554    0.8409   -2.1539 N   0  0  0  0  0  0  0  0  0  0  0  0
    0.5344    0.1217    0.9800 H   0  0  0  0  0  0  0  0  0  0  0  0
    0.5092    1.0213   -0.5205 H   0  0  0  0  0  0  0  0  0  0  0  0
    0.5470   -1.0127   -1.8595 H   0  0  0  0  0  0  0  0  0  0  0  0
   -0.7663   -1.0627   -0.7044 H   0  0  0  0  0  0  0  0  0  0  0  0
    1.8896   -2.5728   -0.4740 H   0  0  0  0  0  0  0  0  0  0  0  0
    0.3343   -3.2397   -0.9183 H   0  0  0  0  0  0  0  0  0  0  0  0
   -0.5805   -2.6089    1.3402 H   0  0  0  0  0  0  0  0  0  0  0  0
    1.0435   -2.0387    1.8065 H   0  0  0  0  0  0  0  0  0  0  0  0
   -0.0333   -2.9842    3.6215 H   0  0  0  0  0  0  0  0  0  0  0  0
    0.4737   -4.2575    4.5702 H   0  0  0  0  0  0  0  0  0  0  0  0
    1.3172   -6.3160    2.1057 H   0  0  0  0  0  0  0  0  0  0  0  0
    0.2355   -6.3519    3.3715 H   0  0  0  0  0  0  0  0  0  0  0  0
    2.8533   -0.6427    0.5395 H   0  0  0  0  0  0  0  0  0  0  0  0
    2.7121    1.1012    0.5460 H   0  0  0  0  0  0  0  0  0  0  0  0
    2.6303    1.1032   -1.9696 H   0  0  0  0  0  0  0  0  0  0  0  0
    2.8874   -0.6613   -1.9506 H   0  0  0  0  0  0  0  0  0  0  0  0
    3.9531    0.2914   -3.7683 H   0  0  0  0  0  0  0  0  0  0  0  0
    5.5693    0.2166   -4.1691 H   0  0  0  0  0  0  0  0  0  0  0  0
    6.7867    0.9666   -1.1727 H   0  0  0  0  0  0  0  0  0  0  0  0
    6.8719    1.6353   -2.6956 H   0  0  0  0  0  0  0  0  0  0  0  0
  1  2  1  0  0  0  0
  1  9  1  0  0  0  0
  1 15  1  0  0  0  0
  1 16  1  0  0  0  0
  2  3  1  0  0  0  0
  2 17  1  0  0  0  0
  2 18  1  0  0  0  0
  3  4  1  0  0  0  0
  3 19  1  0  0  0  0
  3 20  1  0  0  0  0
  4  5  1  0  0  0  0
  4 21  1  0  0  0  0
  4 22  1  0  0  0  0
  5  6  2  0  0  0  0
  6  7  1  0  0  0  0
  6  8  1  0  0  0  0
  7 23  1  0  0  0  0
  7 24  1  0  0  0  0
  8 25  1  0  0  0  0
  8 26  1  0  0  0  0
  9 10  1  0  0  0  0
  9 27  1  0  0  0  0
  9 28  1  0  0  0  0
 10 11  1  0  0  0  0
 10 29  1  0  0  0  0
 10 30  1  0  0  0  0
 11 12  2  0  0  0  0
 12 13  1  0  0  0  0
 12 14  1  0  0  0  0
 13 31  1  0  0  0  0
 13 32  1  0  0  0  0
 14 33  1  0  0  0  0
 14 34  1  0  0  0  0
M  END
