
 OpenBabel10072619503D

 39 40  0  0  0  0  0  0  0  0999 V2000
    1.6438    1.2173   -0.6512 C   0  0  0  0  0  0  0  0  0  0  0  0
    2.5438    0.1680   -0.3186 O   0  0  0  0  0  0  0  0  0  0  0  0
    3.1746   -0.4804   -1.3481 C   0  0  0  0  0  0  0  0  0  0  0  0
    2.7670   -0.5683   -2.6900 C   0  0  0  0  0  0  0  0  0  0  0  0
    3.5363   -1.3110   -3.5976 C   0  0  0  0  0  0  0  0  0  0  0  0
    4.7107   -1.9442   -3.1840 C   0  0  0  0  0  0  0  0  0  0  0  0
    5.1128   -1.8554   -1.8525 C   0  0  0  0  0  0  0  0  0  0  0  0
    4.3450   -1.1344   -0.9375 C   0  0  0  0  0  0  0  0  0  0  0  0
    6.3342   -2.5330   -1.3771 C   0  0  0  0  0  0  0  0  0  0  0  0
    7.1136   -3.1859   -2.1810 N   0  0  0  0  0  0  0  0  0  0  0  0
    8.1912   -3.7700   -1.5717 N   0  0  0  0  0  0  0  0  0  0  0  0
    9.1413   -4.4672   -2.2732 C   0  0  0  0  0  0  0  0  0  0  0  0
   10.1350   -4.9543   -1.7491 O   0  0  0  0  0  0  0  0  0  0  0  0
    8.8937   -4.5756   -3.6013 N   0  0  0  0  0  0  0  0  0  0  0  0
    1.5640   -0.0322   -3.0621 O   0  0  0  0  0  0  0  0  0  0  0  0
    1.5637    0.6664   -4.3111 C   0  0  0  0  0  0  0  0  0  0  0  0
    0.2636    1.4275   -4.4271 C   0  0  0  0  0  0  0  0  0  0  0  0
    0.2556    2.7936   -4.7393 C   0  0  0  0  0  0  0  0  0  0  0  0
   -0.9521    3.4828   -4.8674 C   0  0  0  0  0  0  0  0  0  0  0  0
   -2.1618    2.8138   -4.6891 C   0  0  0  0  0  0  0  0  0  0  0  0
   -2.1675    1.4541   -4.3876 C   0  0  0  0  0  0  0  0  0  0  0  0
   -0.9619    0.7641   -4.2596 C   0  0  0  0  0  0  0  0  0  0  0  0
    0.6753    0.8147   -0.9606 H   0  0  0  0  0  0  0  0  0  0  0  0
    2.0661    1.8945   -1.4012 H   0  0  0  0  0  0  0  0  0  0  0  0
    1.4728    1.8033    0.2573 H   0  0  0  0  0  0  0  0  0  0  0  0
    3.2193   -1.4480   -4.6271 H   0  0  0  0  0  0  0  0  0  0  0  0
    5.2891   -2.5234   -3.8997 H   0  0  0  0  0  0  0  0  0  0  0  0
    4.6436   -1.0678    0.1062 H   0  0  0  0  0  0  0  0  0  0  0  0
    6.5511   -2.4553   -0.2957 H   0  0  0  0  0  0  0  0  0  0  0  0
    8.3391   -3.6851   -0.5727 H   0  0  0  0  0  0  0  0  0  0  0  0
    8.2124   -3.9230   -3.9640 H   0  0  0  0  0  0  0  0  0  0  0  0
    9.6408   -4.9123   -4.1877 H   0  0  0  0  0  0  0  0  0  0  0  0
    1.6187   -0.0314   -5.1546 H   0  0  0  0  0  0  0  0  0  0  0  0
    2.4142    1.3589   -4.3543 H   0  0  0  0  0  0  0  0  0  0  0  0
    1.1882    3.3335   -4.8847 H   0  0  0  0  0  0  0  0  0  0  0  0
   -0.9503    4.5423   -5.1100 H   0  0  0  0  0  0  0  0  0  0  0  0
   -3.1010    3.3513   -4.7879 H   0  0  0  0  0  0  0  0  0  0  0  0
   -3.1095    0.9290   -4.2531 H   0  0  0  0  0  0  0  0  0  0  0  0
   -0.9785   -0.2977   -4.0213 H   0  0  0  0  0  0  0  0  0  0  0  0
  1  2  1  0  0  0  0
  1 23  1  0  0  0  0
  1 24  1  0  0  0  0
  1 25  1  0  0  0  0
  2  3  1  0  0  0  0
  3  4  2  0  0  0  0
  3  8  1  0  0  0  0
  4  5  1  0  0  0  0
  4 15  1  0  0  0  0
  5  6  2  0  0  0  0
  5 26  1  0  0  0  0
  6  7  1  0  0  0  0
  6 27  1  0  0  0  0
  7  8  2  0  0  0  0
  7  9  1  0  0  0  0
  8 28  1  0  0  0  0
  9 10  2  3  0  0  0
  9 29  1  0  0  0  0
 10 11  1  0  0  0  0
 11 12  1  0  0  0  0
 11 30  1  0  0  0  0
 12 13  2  0  0  0  0
 12 14  1  0  0  0  0
 14 31  1  0  0  0  0
 14 32  1  0  0  0  0
 15 16  1  0  0  0  0
 16 17  1  0  0  0  0
 16 33  1  0  0  0  0
 16 34  1  0  0  0  0
 17 18  2  0  0  0  0
 17 22  1  0  0  0  0
 18 19  1  0  0  0  0
 18 35  1  0  0  0  0
 19 20  2  0  0  0  0
 19 36  1  0  0  0  0
 20 21  1  0  0  0  0
 20 37  1  0  0  0  0
 21 22  2  0  0  0  0
 21 38  1  0  0  0  0
 22 39  1  0  0  0  0
M  END
