
 OpenBabel10072620163D

 33 33  0  0  0  0  0  0  0  0999 V2000
    2.0101   -2.0473    0.5565 C   0  0  0  0  0  0  0  0  0  0  0  0
    3.4042   -1.4259    0.4202 C   0  0  0  0  0  0  0  0  0  0  0  0
    4.1573   -1.5436    1.7477 C   0  0  0  0  0  0  0  0  0  0  0  0
    4.1350   -2.1102   -0.7450 C   0  0  0  0  0  0  0  0  0  0  0  0
    5.7228   -1.3860   -1.1477 S   0  0  0  0  0  0  0  0  0  0  0  0
    5.5475    0.0254   -1.4142 O   0  0  0  0  0  0  0  0  0  0  0  0
    6.6949   -1.8593   -0.1834 O   0  0  0  0  0  0  0  0  0  0  0  0
    6.0681   -2.2058   -2.6128 N   0  0  0  0  0  0  0  0  0  0  0  0
    7.2069   -1.6458   -3.3019 C   0  0  0  0  0  0  0  0  0  0  0  0
    8.4906   -2.0457   -2.9145 C   0  0  0  0  0  0  0  0  0  0  0  0
    9.6109   -1.4209   -3.4625 C   0  0  0  0  0  0  0  0  0  0  0  0
    9.4553   -0.3964   -4.3984 C   0  0  0  0  0  0  0  0  0  0  0  0
    8.1762   -0.0183   -4.8139 C   0  0  0  0  0  0  0  0  0  0  0  0
    7.0481   -0.6216   -4.2491 C   0  0  0  0  0  0  0  0  0  0  0  0
    5.7752   -0.3056   -4.6551 O   0  0  0  0  0  0  0  0  0  0  0  0
    5.4770    1.0844   -4.5398 C   0  0  0  0  0  0  0  0  0  0  0  0
    1.4401   -1.5633    1.3554 H   0  0  0  0  0  0  0  0  0  0  0  0
    2.0708   -3.1171    0.7855 H   0  0  0  0  0  0  0  0  0  0  0  0
    1.4416   -1.9339   -0.3732 H   0  0  0  0  0  0  0  0  0  0  0  0
    3.2760   -0.3589    0.1974 H   0  0  0  0  0  0  0  0  0  0  0  0
    4.4312   -2.5825    1.9634 H   0  0  0  0  0  0  0  0  0  0  0  0
    3.5415   -1.1776    2.5775 H   0  0  0  0  0  0  0  0  0  0  0  0
    5.0715   -0.9398    1.7330 H   0  0  0  0  0  0  0  0  0  0  0  0
    3.5268   -2.0327   -1.6528 H   0  0  0  0  0  0  0  0  0  0  0  0
    4.3102   -3.1706   -0.5234 H   0  0  0  0  0  0  0  0  0  0  0  0
    6.2097   -3.1987   -2.4328 H   0  0  0  0  0  0  0  0  0  0  0  0
    8.6260   -2.8223   -2.1651 H   0  0  0  0  0  0  0  0  0  0  0  0
   10.6057   -1.7328   -3.1560 H   0  0  0  0  0  0  0  0  0  0  0  0
   10.3279    0.0984   -4.8193 H   0  0  0  0  0  0  0  0  0  0  0  0
    8.0764    0.7458   -5.5788 H   0  0  0  0  0  0  0  0  0  0  0  0
    4.3888    1.2012   -4.5173 H   0  0  0  0  0  0  0  0  0  0  0  0
    5.8488    1.6270   -5.4170 H   0  0  0  0  0  0  0  0  0  0  0  0
    5.8718    1.5159   -3.6150 H   0  0  0  0  0  0  0  0  0  0  0  0
  1  2  1  0  0  0  0
  1 17  1  0  0  0  0
  1 18  1  0  0  0  0
  1 19  1  0  0  0  0
  2  3  1  0  0  0  0
  2  4  1  0  0  0  0
  2 20  1  0  0  0  0
  3 21  1  0  0  0  0
  3 22  1  0  0  0  0
  3 23  1  0  0  0  0
  4  5  1  0  0  0  0
  4 24  1  0  0  0  0
  4 25  1  0  0  0  0
  5  6  2  0  0  0  0
  5  7  2  0  0  0  0
  5  8  1  0  0  0  0
  8  9  1  0  0  0  0
  8 26  1  0  0  0  0
  9 10  2  0  0  0  0
  9 14  1  0  0  0  0
 10 11  1  0  0  0  0
 10 27  1  0  0  0  0
 11 12  2  0  0  0  0
 11 28  1  0  0  0  0
 12 13  1  0  0  0  0
 12 29  1  0  0  0  0
 13 14  2  0  0  0  0
 13 30  1  0  0  0  0
 14 15  1  0  0  0  0
 15 16  1  0  0  0  0
 16 31  1  0  0  0  0
 16 32  1  0  0  0  0
 16 33  1  0  0  0  0
M  END
