
 OpenBabel10072619513D

 31 32  0  0  0  0  0  0  0  0999 V2000
   -0.4475    1.0796    0.0035 C   0  0  0  0  0  0  0  0  0  0  0  0
    0.6240    0.3249   -0.8004 C   0  0  0  0  0  0  0  0  0  0  0  0
    0.9461   -0.9362   -0.1858 O   0  0  0  0  0  0  0  0  0  0  0  0
   -0.2299   -1.7580   -0.0635 C   0  0  0  0  0  0  0  0  0  0  0  0
   -1.3251   -1.0570    0.7597 C   0  0  0  0  0  0  0  0  0  0  0  0
   -1.6599    0.2441    0.1354 N   0  0  0  0  0  0  0  0  0  0  0  0
   -2.6787    0.3333   -0.7867 C   0  0  0  0  0  0  0  0  0  0  0  0
   -2.7901    1.2085   -1.8571 C   0  0  0  0  0  0  0  0  0  0  0  0
   -3.9973    1.0592   -2.6026 C   0  0  0  0  0  0  0  0  0  0  0  0
   -4.8089    0.0825   -2.0772 C   0  0  0  0  0  0  0  0  0  0  0  0
   -4.1018   -0.6495   -0.7139 S   0  0  0  0  0  0  0  0  0  0  0  0
   -6.1103   -0.3542   -2.5170 C   0  0  0  0  0  0  0  0  0  0  0  0
   -6.6857    0.2022   -3.5370 N   0  0  0  0  0  0  0  0  0  0  0  0
   -7.9222   -0.3022   -3.8483 N   0  0  0  0  0  0  0  0  0  0  0  0
   -8.6697    0.1909   -4.8876 C   0  0  0  0  0  0  0  0  0  0  0  0
   -9.8000   -0.2057   -5.1417 O   0  0  0  0  0  0  0  0  0  0  0  0
   -8.0520    1.1530   -5.6144 N   0  0  0  0  0  0  0  0  0  0  0  0
   -0.6542    2.0606   -0.4353 H   0  0  0  0  0  0  0  0  0  0  0  0
   -0.0626    1.2712    1.0133 H   0  0  0  0  0  0  0  0  0  0  0  0
    1.5446    0.9158   -0.8380 H   0  0  0  0  0  0  0  0  0  0  0  0
    0.2981    0.1435   -1.8312 H   0  0  0  0  0  0  0  0  0  0  0  0
    0.0697   -2.6866    0.4325 H   0  0  0  0  0  0  0  0  0  0  0  0
   -0.5892   -2.0126   -1.0674 H   0  0  0  0  0  0  0  0  0  0  0  0
   -0.9416   -0.8557    1.7680 H   0  0  0  0  0  0  0  0  0  0  0  0
   -2.1876   -1.7176    0.8851 H   0  0  0  0  0  0  0  0  0  0  0  0
   -2.0378    1.9401   -2.1179 H   0  0  0  0  0  0  0  0  0  0  0  0
   -4.2584    1.6508   -3.4725 H   0  0  0  0  0  0  0  0  0  0  0  0
   -6.5999   -1.1721   -1.9560 H   0  0  0  0  0  0  0  0  0  0  0  0
   -8.3522   -1.0317   -3.2905 H   0  0  0  0  0  0  0  0  0  0  0  0
   -7.2499    1.5816   -5.1752 H   0  0  0  0  0  0  0  0  0  0  0  0
   -8.6050    1.6697   -6.2821 H   0  0  0  0  0  0  0  0  0  0  0  0
  1  2  1  0  0  0  0
  1  6  1  0  0  0  0
  1 18  1  0  0  0  0
  1 19  1  0  0  0  0
  2  3  1  0  0  0  0
  2 20  1  0  0  0  0
  2 21  1  0  0  0  0
  3  4  1  0  0  0  0
  4  5  1  0  0  0  0
  4 22  1  0  0  0  0
  4 23  1  0  0  0  0
  5  6  1  0  0  0  0
  5 24  1  0  0  0  0
  5 25  1  0  0  0  0
  6  7  1  0  0  0  0
  7  8  2  0  0  0  0
  7 11  1  0  0  0  0
  8  9  1  0  0  0  0
  8 26  1  0  0  0  0
  9 10  2  0  0  0  0
  9 27  1  0  0  0  0
 10 11  1  0  0  0  0
 10 12  1  0  0  0  0
 12 13  2  0  0  0  0
 12 28  1  0  0  0  0
 13 14  1  0  0  0  0
 14 15  1  0  0  0  0
 14 29  1  0  0  0  0
 15 16  2  0  0  0  0
 15 17  1  0  0  0  0
 17 30  1  0  0  0  0
 17 31  1  0  0  0  0
M  END
