
 OpenBabel10072620033D

 41 42  0  0  0  0  0  0  0  0999 V2000
    1.1496   -1.4315   -0.8797 C   0  0  0  0  0  0  0  0  0  0  0  0
    2.5587   -1.8741   -0.5288 C   0  0  0  0  0  0  0  0  0  0  0  0
    3.0790   -0.9615    0.4365 O   0  0  0  0  0  0  0  0  0  0  0  0
    4.3689   -1.1562    0.8467 C   0  0  0  0  0  0  0  0  0  0  0  0
    5.2094   -2.1962    0.4440 C   0  0  0  0  0  0  0  0  0  0  0  0
    6.5169   -2.2715    0.9335 C   0  0  0  0  0  0  0  0  0  0  0  0
    6.9820   -1.2995    1.8235 C   0  0  0  0  0  0  0  0  0  0  0  0
    6.1441   -0.2692    2.2511 C   0  0  0  0  0  0  0  0  0  0  0  0
    4.8406   -0.2016    1.7552 C   0  0  0  0  0  0  0  0  0  0  0  0
    8.6449   -1.4083    2.4406 S   0  0  0  0  0  0  0  0  0  0  0  0
    8.7482   -0.5554    3.6061 O   0  0  0  0  0  0  0  0  0  0  0  0
    9.0039   -2.8086    2.4774 O   0  0  0  0  0  0  0  0  0  0  0  0
    9.4823   -0.6076    1.1863 N   0  0  0  0  0  0  0  0  0  0  0  0
   10.8555   -1.0061    1.0516 C   0  0  0  0  0  0  0  0  0  0  0  0
   11.2205   -1.9520    0.0829 C   0  0  0  0  0  0  0  0  0  0  0  0
   12.5633   -2.3660    0.0082 C   0  0  0  0  0  0  0  0  0  0  0  0
   13.5242   -1.8377    0.8739 C   0  0  0  0  0  0  0  0  0  0  0  0
   13.1385   -0.8990    1.8323 C   0  0  0  0  0  0  0  0  0  0  0  0
   11.8090   -0.4876    1.9295 C   0  0  0  0  0  0  0  0  0  0  0  0
   14.8545   -2.1544    0.8906 O   0  0  0  0  0  0  0  0  0  0  0  0
   15.3014   -3.1123   -0.0604 C   0  0  0  0  0  0  0  0  0  0  0  0
   10.2055   -2.5576   -0.8448 C   0  0  0  0  0  0  0  0  0  0  0  0
    0.7032   -2.1014   -1.6200 H   0  0  0  0  0  0  0  0  0  0  0  0
    1.1551   -0.4131   -1.2823 H   0  0  0  0  0  0  0  0  0  0  0  0
    0.5162   -1.4181    0.0133 H   0  0  0  0  0  0  0  0  0  0  0  0
    3.1722   -1.8613   -1.4372 H   0  0  0  0  0  0  0  0  0  0  0  0
    2.5238   -2.8871   -0.1117 H   0  0  0  0  0  0  0  0  0  0  0  0
    4.8784   -2.9661   -0.2455 H   0  0  0  0  0  0  0  0  0  0  0  0
    7.1642   -3.0868    0.6178 H   0  0  0  0  0  0  0  0  0  0  0  0
    6.4885    0.4782    2.9616 H   0  0  0  0  0  0  0  0  0  0  0  0
    4.1822    0.6018    2.0787 H   0  0  0  0  0  0  0  0  0  0  0  0
    9.4282    0.3903    1.4022 H   0  0  0  0  0  0  0  0  0  0  0  0
   12.8327   -3.1093   -0.7357 H   0  0  0  0  0  0  0  0  0  0  0  0
   13.8795   -0.4945    2.5177 H   0  0  0  0  0  0  0  0  0  0  0  0
   11.5311    0.2247    2.7017 H   0  0  0  0  0  0  0  0  0  0  0  0
   16.3785   -3.2455    0.0799 H   0  0  0  0  0  0  0  0  0  0  0  0
   15.1410   -2.7570   -1.0837 H   0  0  0  0  0  0  0  0  0  0  0  0
   14.8218   -4.0833    0.1018 H   0  0  0  0  0  0  0  0  0  0  0  0
    9.5425   -1.7882   -1.2540 H   0  0  0  0  0  0  0  0  0  0  0  0
    9.6094   -3.3058   -0.3142 H   0  0  0  0  0  0  0  0  0  0  0  0
   10.6876   -3.0476   -1.6973 H   0  0  0  0  0  0  0  0  0  0  0  0
  1  2  1  0  0  0  0
  1 23  1  0  0  0  0
  1 24  1  0  0  0  0
  1 25  1  0  0  0  0
  2  3  1  0  0  0  0
  2 26  1  0  0  0  0
  2 27  1  0  0  0  0
  3  4  1  0  0  0  0
  4  5  2  0  0  0  0
  4  9  1  0  0  0  0
  5  6  1  0  0  0  0
  5 28  1  0  0  0  0
  6  7  2  0  0  0  0
  6 29  1  0  0  0  0
  7  8  1  0  0  0  0
  7 10  1  0  0  0  0
  8  9  2  0  0  0  0
  8 30  1  0  0  0  0
  9 31  1  0  0  0  0
 10 11  2  0  0  0  0
 10 12  2  0  0  0  0
 10 13  1  0  0  0  0
 13 14  1  0  0  0  0
 13 32  1  0  0  0  0
 14 15  2  0  0  0  0
 14 19  1  0  0  0  0
 15 16  1  0  0  0  0
 15 22  1  0  0  0  0
 16 17  2  0  0  0  0
 16 33  1  0  0  0  0
 17 18  1  0  0  0  0
 17 20  1  0  0  0  0
 18 19  2  0  0  0  0
 18 34  1  0  0  0  0
 19 35  1  0  0  0  0
 20 21  1  0  0  0  0
 21 36  1  0  0  0  0
 21 37  1  0  0  0  0
 21 38  1  0  0  0  0
 22 39  1  0  0  0  0
 22 40  1  0  0  0  0
 22 41  1  0  0  0  0
M  END
