
 OpenBabel10072619443D

 26 27  0  0  0  0  0  0  0  0999 V2000
    2.8525    2.9217   -1.2374 C   0  0  0  0  0  0  0  0  0  0  0  0
    2.5249    1.7821   -2.1141 N   0  0  0  0  0  0  0  0  0  0  0  0
    2.7035    2.0856   -3.5453 C   0  0  0  0  0  0  0  0  0  0  0  0
    3.0476    0.2427   -1.5863 S   0  0  0  0  0  0  0  0  0  0  0  0
    2.7076    0.1159   -0.1831 O   0  0  0  0  0  0  0  0  0  0  0  0
    2.6081   -0.7442   -2.5505 O   0  0  0  0  0  0  0  0  0  0  0  0
    4.7386    0.1820   -1.6190 N   0  0  0  0  0  0  0  0  0  0  0  0
    5.4994    0.6250   -0.5797 C   0  0  0  0  0  0  0  0  0  0  0  0
    6.7627    0.7333   -0.9281 N   0  0  0  0  0  0  0  0  0  0  0  0
    6.8010    0.3613   -2.2529 C   0  0  0  0  0  0  0  0  0  0  0  0
    7.9000    0.3112   -3.1235 C   0  0  0  0  0  0  0  0  0  0  0  0
    7.6948   -0.0822   -4.4505 C   0  0  0  0  0  0  0  0  0  0  0  0
    6.4203   -0.4233   -4.9037 C   0  0  0  0  0  0  0  0  0  0  0  0
    5.3103   -0.3830   -4.0520 C   0  0  0  0  0  0  0  0  0  0  0  0
    5.5325    0.0179   -2.7269 C   0  0  0  0  0  0  0  0  0  0  0  0
    2.2653    3.7970   -1.5338 H   0  0  0  0  0  0  0  0  0  0  0  0
    3.9139    3.1757   -1.3083 H   0  0  0  0  0  0  0  0  0  0  0  0
    2.5969    2.7050   -0.1967 H   0  0  0  0  0  0  0  0  0  0  0  0
    2.0948    2.9551   -3.8148 H   0  0  0  0  0  0  0  0  0  0  0  0
    2.3631    1.2563   -4.1709 H   0  0  0  0  0  0  0  0  0  0  0  0
    3.7489    2.3128   -3.7705 H   0  0  0  0  0  0  0  0  0  0  0  0
    5.0924    0.8595    0.3964 H   0  0  0  0  0  0  0  0  0  0  0  0
    8.8892    0.5772   -2.7659 H   0  0  0  0  0  0  0  0  0  0  0  0
    8.5410   -0.1259   -5.1327 H   0  0  0  0  0  0  0  0  0  0  0  0
    6.2873   -0.7359   -5.9382 H   0  0  0  0  0  0  0  0  0  0  0  0
    4.3282   -0.6720   -4.4152 H   0  0  0  0  0  0  0  0  0  0  0  0
  1  2  1  0  0  0  0
  1 16  1  0  0  0  0
  1 17  1  0  0  0  0
  1 18  1  0  0  0  0
  2  3  1  0  0  0  0
  2  4  1  0  0  0  0
  3 19  1  0  0  0  0
  3 20  1  0  0  0  0
  3 21  1  0  0  0  0
  4  5  2  0  0  0  0
  4  6  2  0  0  0  0
  4  7  1  0  0  0  0
  7  8  1  0  0  0  0
  7 15  1  0  0  0  0
  8  9  2  0  0  0  0
  8 22  1  0  0  0  0
  9 10  1  0  0  0  0
 10 11  2  0  0  0  0
 10 15  1  0  0  0  0
 11 12  1  0  0  0  0
 11 23  1  0  0  0  0
 12 13  2  0  0  0  0
 12 24  1  0  0  0  0
 13 14  1  0  0  0  0
 13 25  1  0  0  0  0
 14 15  2  0  0  0  0
 14 26  1  0  0  0  0
M  END
