
 OpenBabel10072620013D

 43 44  0  0  0  0  0  0  0  0999 V2000
   -7.3659   -0.3601    2.9835 C   0  0  0  0  0  0  0  0  0  0  0  0
   -6.4247   -0.6609    1.8473 C   0  0  0  0  0  0  0  0  0  0  0  0
   -5.5764   -1.7981    1.8436 C   0  0  0  0  0  0  0  0  0  0  0  0
   -4.7331   -2.0489    0.7235 C   0  0  0  0  0  0  0  0  0  0  0  0
   -4.7480   -1.1494   -0.3448 C   0  0  0  0  0  0  0  0  0  0  0  0
   -5.5551   -0.0125   -0.3177 C   0  0  0  0  0  0  0  0  0  0  0  0
   -6.3844    0.2315    0.7687 C   0  0  0  0  0  0  0  0  0  0  0  0
   -3.9492   -3.2320    0.7237 N   0  0  0  0  0  0  0  0  0  0  0  0
   -2.8856   -3.6739   -0.0299 C   0  0  0  0  0  0  0  0  0  0  0  0
   -1.9965   -2.8915   -1.2075 S   0  0  0  0  0  0  0  0  0  0  0  0
   -2.4609   -4.9624    0.2776 N   0  0  0  0  0  0  0  0  0  0  0  0
   -2.9539   -5.8474    1.2281 C   0  0  0  0  0  0  0  0  0  0  0  0
   -3.8902   -5.5806    1.9817 O   0  0  0  0  0  0  0  0  0  0  0  0
   -2.1935   -7.1558    1.3217 C   0  0  0  0  0  0  0  0  0  0  0  0
   -2.2111   -7.9729    0.0528 C   0  0  0  0  0  0  0  0  0  0  0  0
   -1.0251   -8.5155   -0.4587 C   0  0  0  0  0  0  0  0  0  0  0  0
   -1.0424   -9.3222   -1.6036 C   0  0  0  0  0  0  0  0  0  0  0  0
   -2.2452   -9.5996   -2.2510 C   0  0  0  0  0  0  0  0  0  0  0  0
   -3.4281   -9.0571   -1.7466 C   0  0  0  0  0  0  0  0  0  0  0  0
   -3.4165   -8.2587   -0.6002 C   0  0  0  0  0  0  0  0  0  0  0  0
   -2.3976  -10.3712   -3.3696 O   0  0  0  0  0  0  0  0  0  0  0  0
   -1.2678  -11.1277   -3.7887 C   0  0  0  0  0  0  0  0  0  0  0  0
   -5.5801   -2.7425    3.0253 C   0  0  0  0  0  0  0  0  0  0  0  0
   -6.8046   -0.0943    3.8847 H   0  0  0  0  0  0  0  0  0  0  0  0
   -8.0078   -1.2232    3.1876 H   0  0  0  0  0  0  0  0  0  0  0  0
   -8.0267    0.4802    2.7445 H   0  0  0  0  0  0  0  0  0  0  0  0
   -4.1702   -1.3095   -1.2453 H   0  0  0  0  0  0  0  0  0  0  0  0
   -5.5476    0.6718   -1.1621 H   0  0  0  0  0  0  0  0  0  0  0  0
   -7.0169    1.1166    0.7595 H   0  0  0  0  0  0  0  0  0  0  0  0
   -4.2053   -3.8981    1.4507 H   0  0  0  0  0  0  0  0  0  0  0  0
   -1.6897   -5.2782   -0.2989 H   0  0  0  0  0  0  0  0  0  0  0  0
   -2.6272   -7.7570    2.1306 H   0  0  0  0  0  0  0  0  0  0  0  0
   -1.1663   -6.9161    1.6226 H   0  0  0  0  0  0  0  0  0  0  0  0
   -0.0719   -8.3247    0.0308 H   0  0  0  0  0  0  0  0  0  0  0  0
   -0.0985   -9.7167   -1.9647 H   0  0  0  0  0  0  0  0  0  0  0  0
   -4.3719   -9.2693   -2.2440 H   0  0  0  0  0  0  0  0  0  0  0  0
   -4.3614   -7.8693   -0.2247 H   0  0  0  0  0  0  0  0  0  0  0  0
   -1.5803  -11.7615   -4.6249 H   0  0  0  0  0  0  0  0  0  0  0  0
   -0.9142  -11.7866   -2.9887 H   0  0  0  0  0  0  0  0  0  0  0  0
   -0.4650  -10.4749   -4.1472 H   0  0  0  0  0  0  0  0  0  0  0  0
   -6.0448   -2.3093    3.9140 H   0  0  0  0  0  0  0  0  0  0  0  0
   -4.5553   -2.9883    3.3241 H   0  0  0  0  0  0  0  0  0  0  0  0
   -6.1227   -3.6585    2.7717 H   0  0  0  0  0  0  0  0  0  0  0  0
  1  2  1  0  0  0  0
  1 24  1  0  0  0  0
  1 25  1  0  0  0  0
  1 26  1  0  0  0  0
  2  3  2  0  0  0  0
  2  7  1  0  0  0  0
  3  4  1  0  0  0  0
  3 23  1  0  0  0  0
  4  5  2  0  0  0  0
  4  8  1  0  0  0  0
  5  6  1  0  0  0  0
  5 27  1  0  0  0  0
  6  7  2  0  0  0  0
  6 28  1  0  0  0  0
  7 29  1  0  0  0  0
  8  9  1  0  0  0  0
  8 30  1  0  0  0  0
  9 10  2  0  0  0  0
  9 11  1  0  0  0  0
 11 12  1  0  0  0  0
 11 31  1  0  0  0  0
 12 13  2  0  0  0  0
 12 14  1  0  0  0  0
 14 15  1  0  0  0  0
 14 32  1  0  0  0  0
 14 33  1  0  0  0  0
 15 16  2  0  0  0  0
 15 20  1  0  0  0  0
 16 17  1  0  0  0  0
 16 34  1  0  0  0  0
 17 18  2  0  0  0  0
 17 35  1  0  0  0  0
 18 19  1  0  0  0  0
 18 21  1  0  0  0  0
 19 20  2  0  0  0  0
 19 36  1  0  0  0  0
 20 37  1  0  0  0  0
 21 22  1  0  0  0  0
 22 38  1  0  0  0  0
 22 39  1  0  0  0  0
 22 40  1  0  0  0  0
 23 41  1  0  0  0  0
 23 42  1  0  0  0  0
 23 43  1  0  0  0  0
M  END
