
 OpenBabel10072616313D

 30 30  0  0  0  0  0  0  0  0999 V2000
    3.9236   -3.2136    0.4209 C   0  0  0  0  0  0  0  0  0  0  0  0
    5.0279   -2.8505    1.0870 C   0  0  0  0  0  0  0  0  0  0  0  0
    5.6950   -1.5166    0.9792 C   0  0  0  0  0  0  0  0  0  0  0  0
    5.6028   -0.8720    2.2699 N   0  0  0  0  0  0  0  0  0  0  0  0
    6.1918    0.2842    2.6725 C   0  0  0  0  0  0  0  0  0  0  0  0
    5.7969    0.8866    4.1864 S   0  0  0  0  0  0  0  0  0  0  0  0
    7.0442    0.8986    1.7916 N   0  0  0  0  0  0  0  0  0  0  0  0
    7.8738    1.9361    2.2474 N   0  0  0  0  0  0  0  0  0  0  0  0
    9.1826    1.9599    1.8122 C   0  0  0  0  0  0  0  0  0  0  0  0
    9.5779    1.3217    0.8411 O   0  0  0  0  0  0  0  0  0  0  0  0
   10.1106    2.8188    2.5923 C   0  0  0  0  0  0  0  0  0  0  0  0
    9.9745    2.9705    3.9805 C   0  0  0  0  0  0  0  0  0  0  0  0
   10.8862    3.7644    4.6700 C   0  0  0  0  0  0  0  0  0  0  0  0
   11.9237    4.4059    4.0023 C   0  0  0  0  0  0  0  0  0  0  0  0
   12.0689    4.2440    2.6248 C   0  0  0  0  0  0  0  0  0  0  0  0
   11.1682    3.4440    1.9194 C   0  0  0  0  0  0  0  0  0  0  0  0
   10.8092    3.9360    6.0209 O   0  0  0  0  0  0  0  0  0  0  0  0
    3.4975   -4.2047    0.5526 H   0  0  0  0  0  0  0  0  0  0  0  0
    3.4150   -2.5415   -0.2640 H   0  0  0  0  0  0  0  0  0  0  0  0
    5.4961   -3.5736    1.7523 H   0  0  0  0  0  0  0  0  0  0  0  0
    5.2187   -0.8670    0.2381 H   0  0  0  0  0  0  0  0  0  0  0  0
    6.7483   -1.6401    0.7085 H   0  0  0  0  0  0  0  0  0  0  0  0
    4.9136   -1.2310    2.9211 H   0  0  0  0  0  0  0  0  0  0  0  0
    7.4244    0.3944    0.9932 H   0  0  0  0  0  0  0  0  0  0  0  0
    7.5484    2.4444    3.0645 H   0  0  0  0  0  0  0  0  0  0  0  0
    9.1904    2.4526    4.5218 H   0  0  0  0  0  0  0  0  0  0  0  0
   12.6261    5.0211    4.5583 H   0  0  0  0  0  0  0  0  0  0  0  0
   12.8880    4.7346    2.1045 H   0  0  0  0  0  0  0  0  0  0  0  0
   11.2901    3.3109    0.8460 H   0  0  0  0  0  0  0  0  0  0  0  0
   10.0777    3.4050    6.3767 H   0  0  0  0  0  0  0  0  0  0  0  0
  1  2  2  0  0  0  0
  1 18  1  0  0  0  0
  1 19  1  0  0  0  0
  2  3  1  0  0  0  0
  2 20  1  0  0  0  0
  3  4  1  0  0  0  0
  3 21  1  0  0  0  0
  3 22  1  0  0  0  0
  4  5  1  0  0  0  0
  4 23  1  0  0  0  0
  5  6  2  0  0  0  0
  5  7  1  0  0  0  0
  7  8  1  0  0  0  0
  7 24  1  0  0  0  0
  8  9  1  0  0  0  0
  8 25  1  0  0  0  0
  9 10  2  0  0  0  0
  9 11  1  0  0  0  0
 11 12  2  0  0  0  0
 11 16  1  0  0  0  0
 12 13  1  0  0  0  0
 12 26  1  0  0  0  0
 13 14  2  0  0  0  0
 13 17  1  0  0  0  0
 14 15  1  0  0  0  0
 14 27  1  0  0  0  0
 15 16  2  0  0  0  0
 15 28  1  0  0  0  0
 16 29  1  0  0  0  0
 17 30  1  0  0  0  0
M  END
