
 OpenBabel10072616433D

145146  0  0  0  0  0  0  0  0999 V2000
    4.6051   28.8022    4.0950 C   0  0  0  0  0  0  0  0  0  0  0  0
    5.9888   28.1745    4.1690 C   0  0  0  0  0  0  0  0  0  0  0  0
    6.1395   27.0383    3.1578 C   0  0  0  0  0  0  0  0  0  0  0  0
    7.5289   26.4050    3.2283 C   0  0  0  0  0  0  0  0  0  0  0  0
    7.6695   25.2703    2.2125 C   0  0  0  0  0  0  0  0  0  0  0  0
    9.0585   24.6400    2.2813 C   0  0  0  0  0  0  0  0  0  0  0  0
    9.2128   23.5066    1.2674 C   0  0  0  0  0  0  0  0  0  0  0  0
   10.6114   22.8989    1.3547 C   0  0  0  0  0  0  0  0  0  0  0  0
   10.7992   21.7614    0.3532 C   0  0  0  0  0  0  0  0  0  0  0  0
   12.2029   21.1699    0.4720 C   0  0  0  0  0  0  0  0  0  0  0  0
   12.4027   20.0072   -0.4971 C   0  0  0  0  0  0  0  0  0  0  0  0
   13.7956   19.4020   -0.3348 C   0  0  0  0  0  0  0  0  0  0  0  0
   13.9936   18.2115   -1.2697 C   0  0  0  0  0  0  0  0  0  0  0  0
   15.3719   17.5868   -1.0699 C   0  0  0  0  0  0  0  0  0  0  0  0
   15.6063   16.4386   -2.0505 C   0  0  0  0  0  0  0  0  0  0  0  0
   16.9858   15.8221   -1.8380 C   0  0  0  0  0  0  0  0  0  0  0  0
   17.3035   14.7633   -2.8926 C   0  0  0  0  0  0  0  0  0  0  0  0
   18.7187   14.2393   -2.6948 C   0  0  0  0  0  0  0  0  0  0  0  0
   19.1585   13.4059   -3.8000 N   0  0  0  0  0  0  0  0  0  0  0  0
   20.4586   13.1621   -4.1670 C   0  0  0  0  0  0  0  0  0  0  0  0
   20.7086   12.3722   -5.6150 S   0  0  0  0  0  0  0  0  0  0  0  0
   21.3918   13.5812   -3.2518 N   0  0  0  0  0  0  0  0  0  0  0  0
   22.7436   13.9485   -3.4002 C   0  0  0  0  0  0  0  0  0  0  0  0
   23.3307   14.2879   -4.6206 C   0  0  0  0  0  0  0  0  0  0  0  0
   24.6619   14.7108   -4.6763 C   0  0  0  0  0  0  0  0  0  0  0  0
   25.4080   14.7957   -3.4989 C   0  0  0  0  0  0  0  0  0  0  0  0
   24.8361   14.4771   -2.2690 C   0  0  0  0  0  0  0  0  0  0  0  0
   23.5035   14.0601   -2.2253 C   0  0  0  0  0  0  0  0  0  0  0  0
   27.1177   15.2750   -3.5943 S   0  0  0  0  0  0  0  0  0  0  0  0
   27.1650   16.5159   -4.3410 O   0  0  0  0  0  0  0  0  0  0  0  0
   27.6808   15.1876   -2.2580 O   0  0  0  0  0  0  0  0  0  0  0  0
   27.8980   14.0071   -4.5636 C   0  0  0  0  0  0  0  0  0  0  0  0
   28.2404   14.2541   -5.8928 C   0  0  0  0  0  0  0  0  0  0  0  0
   28.7695   13.2197   -6.6693 C   0  0  0  0  0  0  0  0  0  0  0  0
   28.9749   11.9520   -6.1177 C   0  0  0  0  0  0  0  0  0  0  0  0
   28.6313   11.7246   -4.7775 C   0  0  0  0  0  0  0  0  0  0  0  0
   28.1033   12.7506   -3.9935 C   0  0  0  0  0  0  0  0  0  0  0  0
   29.4289   10.8421   -6.8563 N   0  0  0  0  0  0  0  0  0  0  0  0
   30.1653   10.7742   -8.0295 C   0  0  0  0  0  0  0  0  0  0  0  0
   31.1893   11.9440   -8.6424 S   0  0  0  0  0  0  0  0  0  0  0  0
   29.9802    9.5168   -8.5971 N   0  0  0  0  0  0  0  0  0  0  0  0
   30.6003    9.0698   -9.8371 C   0  0  0  0  0  0  0  0  0  0  0  0
   30.2586    7.6142  -10.1383 C   0  0  0  0  0  0  0  0  0  0  0  0
   30.9949    7.1358  -11.3881 C   0  0  0  0  0  0  0  0  0  0  0  0
   30.5124    5.7577  -11.8428 C   0  0  0  0  0  0  0  0  0  0  0  0
   31.3835    5.2336  -12.9838 C   0  0  0  0  0  0  0  0  0  0  0  0
   30.8487    3.9240  -13.5654 C   0  0  0  0  0  0  0  0  0  0  0  0
   31.8258    3.3676  -14.6012 C   0  0  0  0  0  0  0  0  0  0  0  0
   31.3127    2.0810  -15.2485 C   0  0  0  0  0  0  0  0  0  0  0  0
   32.3478    1.5357  -16.2339 C   0  0  0  0  0  0  0  0  0  0  0  0
   31.8789    0.2505  -16.9158 C   0  0  0  0  0  0  0  0  0  0  0  0
   32.9426   -0.2634  -17.8883 C   0  0  0  0  0  0  0  0  0  0  0  0
   32.4984   -1.5479  -18.5897 C   0  0  0  0  0  0  0  0  0  0  0  0
   33.5770   -2.0373  -19.5579 C   0  0  0  0  0  0  0  0  0  0  0  0
   33.1595   -3.3207  -20.2763 C   0  0  0  0  0  0  0  0  0  0  0  0
   34.2527   -3.7906  -21.2390 C   0  0  0  0  0  0  0  0  0  0  0  0
   33.8460   -5.0747  -21.9632 C   0  0  0  0  0  0  0  0  0  0  0  0
   34.9384   -5.5445  -22.9245 C   0  0  0  0  0  0  0  0  0  0  0  0
   34.5360   -6.8219  -23.6455 C   0  0  0  0  0  0  0  0  0  0  0  0
    4.5160   29.6127    4.8256 H   0  0  0  0  0  0  0  0  0  0  0  0
    3.8271   28.0624    4.3108 H   0  0  0  0  0  0  0  0  0  0  0  0
    4.4166   29.2188    3.1000 H   0  0  0  0  0  0  0  0  0  0  0  0
    6.1581   27.7965    5.1841 H   0  0  0  0  0  0  0  0  0  0  0  0
    6.7441   28.9462    3.9796 H   0  0  0  0  0  0  0  0  0  0  0  0
    5.9626   27.4232    2.1461 H   0  0  0  0  0  0  0  0  0  0  0  0
    5.3773   26.2735    3.3505 H   0  0  0  0  0  0  0  0  0  0  0  0
    7.7068   26.0190    4.2395 H   0  0  0  0  0  0  0  0  0  0  0  0
    8.2918   27.1692    3.0356 H   0  0  0  0  0  0  0  0  0  0  0  0
    7.4903   25.6567    1.2020 H   0  0  0  0  0  0  0  0  0  0  0  0
    6.9081   24.5055    2.4071 H   0  0  0  0  0  0  0  0  0  0  0  0
    9.2365   24.2530    3.2921 H   0  0  0  0  0  0  0  0  0  0  0  0
    9.8195   25.4066    2.0909 H   0  0  0  0  0  0  0  0  0  0  0  0
    9.0376   23.8872    0.2539 H   0  0  0  0  0  0  0  0  0  0  0  0
    8.4601   22.7320    1.4581 H   0  0  0  0  0  0  0  0  0  0  0  0
   10.7835   22.5221    2.3705 H   0  0  0  0  0  0  0  0  0  0  0  0
   11.3619   23.6768    1.1682 H   0  0  0  0  0  0  0  0  0  0  0  0
   10.6388   22.1317   -0.6666 H   0  0  0  0  0  0  0  0  0  0  0  0
   10.0524   20.9795    0.5366 H   0  0  0  0  0  0  0  0  0  0  0  0
   12.3676   20.8225    1.4995 H   0  0  0  0  0  0  0  0  0  0  0  0
   12.9500   21.9480    0.2718 H   0  0  0  0  0  0  0  0  0  0  0  0
   12.2689   20.3561   -1.5284 H   0  0  0  0  0  0  0  0  0  0  0  0
   11.6422   19.2387   -0.3121 H   0  0  0  0  0  0  0  0  0  0  0  0
   13.9403   19.0823    0.7044 H   0  0  0  0  0  0  0  0  0  0  0  0
   14.5546   20.1654   -0.5463 H   0  0  0  0  0  0  0  0  0  0  0  0
   13.8794   18.5394   -2.3097 H   0  0  0  0  0  0  0  0  0  0  0  0
   13.2199   17.4578   -1.0813 H   0  0  0  0  0  0  0  0  0  0  0  0
   15.4628   17.2192   -0.0404 H   0  0  0  0  0  0  0  0  0  0  0  0
   16.1454   18.3527   -1.2077 H   0  0  0  0  0  0  0  0  0  0  0  0
   15.5229   16.8140   -3.0778 H   0  0  0  0  0  0  0  0  0  0  0  0
   14.8338   15.6717   -1.9188 H   0  0  0  0  0  0  0  0  0  0  0  0
   17.0426   15.3763   -0.8374 H   0  0  0  0  0  0  0  0  0  0  0  0
   17.7454   16.6130   -1.8778 H   0  0  0  0  0  0  0  0  0  0  0  0
   17.2076   15.1985   -3.8949 H   0  0  0  0  0  0  0  0  0  0  0  0
   16.5866   13.9358   -2.8345 H   0  0  0  0  0  0  0  0  0  0  0  0
   18.7811   13.6362   -1.7820 H   0  0  0  0  0  0  0  0  0  0  0  0
   19.4168   15.0785   -2.5975 H   0  0  0  0  0  0  0  0  0  0  0  0
   18.4681   13.0846   -4.4714 H   0  0  0  0  0  0  0  0  0  0  0  0
   21.0655   13.5379   -2.2963 H   0  0  0  0  0  0  0  0  0  0  0  0
   22.7691   14.2696   -5.5482 H   0  0  0  0  0  0  0  0  0  0  0  0
   25.0955   14.9800   -5.6371 H   0  0  0  0  0  0  0  0  0  0  0  0
   25.4109   14.5482   -1.3478 H   0  0  0  0  0  0  0  0  0  0  0  0
   23.0699   13.8131   -1.2590 H   0  0  0  0  0  0  0  0  0  0  0  0
   28.0769   15.2299   -6.3447 H   0  0  0  0  0  0  0  0  0  0  0  0
   28.9688   13.4238   -7.7167 H   0  0  0  0  0  0  0  0  0  0  0  0
   28.7799   10.7472   -4.3248 H   0  0  0  0  0  0  0  0  0  0  0  0
   27.8425   12.5577   -2.9554 H   0  0  0  0  0  0  0  0  0  0  0  0
   29.3668    9.9497   -6.3835 H   0  0  0  0  0  0  0  0  0  0  0  0
   29.0718    9.1189   -8.3974 H   0  0  0  0  0  0  0  0  0  0  0  0
   31.6845    9.1949   -9.7445 H   0  0  0  0  0  0  0  0  0  0  0  0
   30.2424    9.7185  -10.6444 H   0  0  0  0  0  0  0  0  0  0  0  0
   29.1750    7.5129  -10.2739 H   0  0  0  0  0  0  0  0  0  0  0  0
   30.5326    6.9823   -9.2841 H   0  0  0  0  0  0  0  0  0  0  0  0
   32.0719    7.1069  -11.1817 H   0  0  0  0  0  0  0  0  0  0  0  0
   30.8443    7.8531  -12.2043 H   0  0  0  0  0  0  0  0  0  0  0  0
   29.4685    5.8280  -12.1705 H   0  0  0  0  0  0  0  0  0  0  0  0
   30.5431    5.0510  -11.0051 H   0  0  0  0  0  0  0  0  0  0  0  0
   32.4041    5.0805  -12.6115 H   0  0  0  0  0  0  0  0  0  0  0  0
   31.4424    5.9849  -13.7810 H   0  0  0  0  0  0  0  0  0  0  0  0
   29.8705    4.0990  -14.0297 H   0  0  0  0  0  0  0  0  0  0  0  0
   30.7035    3.1893  -12.7645 H   0  0  0  0  0  0  0  0  0  0  0  0
   32.7906    3.1718  -14.1166 H   0  0  0  0  0  0  0  0  0  0  0  0
   32.0052    4.1204  -15.3790 H   0  0  0  0  0  0  0  0  0  0  0  0
   30.3697    2.2816  -15.7709 H   0  0  0  0  0  0  0  0  0  0  0  0
   31.1046    1.3322  -14.4751 H   0  0  0  0  0  0  0  0  0  0  0  0
   33.2882    1.3430  -15.7028 H   0  0  0  0  0  0  0  0  0  0  0  0
   32.5596    2.2959  -16.9959 H   0  0  0  0  0  0  0  0  0  0  0  0
   30.9440    0.4387  -17.4568 H   0  0  0  0  0  0  0  0  0  0  0  0
   31.6699   -0.5153  -16.1593 H   0  0  0  0  0  0  0  0  0  0  0  0
   33.8772   -0.4484  -17.3441 H   0  0  0  0  0  0  0  0  0  0  0  0
   33.1559    0.5080  -18.6388 H   0  0  0  0  0  0  0  0  0  0  0  0
   31.5651   -1.3657  -19.1360 H   0  0  0  0  0  0  0  0  0  0  0  0
   32.2916   -2.3232  -17.8422 H   0  0  0  0  0  0  0  0  0  0  0  0
   34.5087   -2.2137  -19.0066 H   0  0  0  0  0  0  0  0  0  0  0  0
   33.7838   -1.2551  -20.2985 H   0  0  0  0  0  0  0  0  0  0  0  0
   32.2296   -3.1468  -20.8311 H   0  0  0  0  0  0  0  0  0  0  0  0
   32.9551   -4.1062  -19.5388 H   0  0  0  0  0  0  0  0  0  0  0  0
   35.1827   -3.9613  -20.6830 H   0  0  0  0  0  0  0  0  0  0  0  0
   34.4570   -3.0031  -21.9748 H   0  0  0  0  0  0  0  0  0  0  0  0
   32.9168   -4.9034  -22.5200 H   0  0  0  0  0  0  0  0  0  0  0  0
   33.6421   -5.8620  -21.2274 H   0  0  0  0  0  0  0  0  0  0  0  0
   35.8694   -5.7219  -22.3735 H   0  0  0  0  0  0  0  0  0  0  0  0
   35.1441   -4.7637  -23.6660 H   0  0  0  0  0  0  0  0  0  0  0  0
   34.3546   -7.6339  -22.9339 H   0  0  0  0  0  0  0  0  0  0  0  0
   35.3315   -7.1394  -24.3272 H   0  0  0  0  0  0  0  0  0  0  0  0
   33.6253   -6.6704  -24.2339 H   0  0  0  0  0  0  0  0  0  0  0  0
  1  2  1  0  0  0  0
  1 60  1  0  0  0  0
  1 61  1  0  0  0  0
  1 62  1  0  0  0  0
  2  3  1  0  0  0  0
  2 63  1  0  0  0  0
  2 64  1  0  0  0  0
  3  4  1  0  0  0  0
  3 65  1  0  0  0  0
  3 66  1  0  0  0  0
  4  5  1  0  0  0  0
  4 67  1  0  0  0  0
  4 68  1  0  0  0  0
  5  6  1  0  0  0  0
  5 69  1  0  0  0  0
  5 70  1  0  0  0  0
  6  7  1  0  0  0  0
  6 71  1  0  0  0  0
  6 72  1  0  0  0  0
  7  8  1  0  0  0  0
  7 73  1  0  0  0  0
  7 74  1  0  0  0  0
  8  9  1  0  0  0  0
  8 75  1  0  0  0  0
  8 76  1  0  0  0  0
  9 10  1  0  0  0  0
  9 77  1  0  0  0  0
  9 78  1  0  0  0  0
 10 11  1  0  0  0  0
 10 79  1  0  0  0  0
 10 80  1  0  0  0  0
 11 12  1  0  0  0  0
 11 81  1  0  0  0  0
 11 82  1  0  0  0  0
 12 13  1  0  0  0  0
 12 83  1  0  0  0  0
 12 84  1  0  0  0  0
 13 14  1  0  0  0  0
 13 85  1  0  0  0  0
 13 86  1  0  0  0  0
 14 15  1  0  0  0  0
 14 87  1  0  0  0  0
 14 88  1  0  0  0  0
 15 16  1  0  0  0  0
 15 89  1  0  0  0  0
 15 90  1  0  0  0  0
 16 17  1  0  0  0  0
 16 91  1  0  0  0  0
 16 92  1  0  0  0  0
 17 18  1  0  0  0  0
 17 93  1  0  0  0  0
 17 94  1  0  0  0  0
 18 19  1  0  0  0  0
 18 95  1  0  0  0  0
 18 96  1  0  0  0  0
 19 20  1  0  0  0  0
 19 97  1  0  0  0  0
 20 21  2  0  0  0  0
 20 22  1  0  0  0  0
 22 23  1  0  0  0  0
 22 98  1  0  0  0  0
 23 24  2  0  0  0  0
 23 28  1  0  0  0  0
 24 25  1  0  0  0  0
 24 99  1  0  0  0  0
 25 26  2  0  0  0  0
 25100  1  0  0  0  0
 26 27  1  0  0  0  0
 26 29  1  0  0  0  0
 27 28  2  0  0  0  0
 27101  1  0  0  0  0
 28102  1  0  0  0  0
 29 30  2  0  0  0  0
 29 31  2  0  0  0  0
 29 32  1  0  0  0  0
 32 33  2  0  0  0  0
 32 37  1  0  0  0  0
 33 34  1  0  0  0  0
 33103  1  0  0  0  0
 34 35  2  0  0  0  0
 34104  1  0  0  0  0
 35 36  1  0  0  0  0
 35 38  1  0  0  0  0
 36 37  2  0  0  0  0
 36105  1  0  0  0  0
 37106  1  0  0  0  0
 38 39  1  0  0  0  0
 38107  1  0  0  0  0
 39 40  2  0  0  0  0
 39 41  1  0  0  0  0
 41 42  1  0  0  0  0
 41108  1  0  0  0  0
 42 43  1  0  0  0  0
 42109  1  0  0  0  0
 42110  1  0  0  0  0
 43 44  1  0  0  0  0
 43111  1  0  0  0  0
 43112  1  0  0  0  0
 44 45  1  0  0  0  0
 44113  1  0  0  0  0
 44114  1  0  0  0  0
 45 46  1  0  0  0  0
 45115  1  0  0  0  0
 45116  1  0  0  0  0
 46 47  1  0  0  0  0
 46117  1  0  0  0  0
 46118  1  0  0  0  0
 47 48  1  0  0  0  0
 47119  1  0  0  0  0
 47120  1  0  0  0  0
 48 49  1  0  0  0  0
 48121  1  0  0  0  0
 48122  1  0  0  0  0
 49 50  1  0  0  0  0
 49123  1  0  0  0  0
 49124  1  0  0  0  0
 50 51  1  0  0  0  0
 50125  1  0  0  0  0
 50126  1  0  0  0  0
 51 52  1  0  0  0  0
 51127  1  0  0  0  0
 51128  1  0  0  0  0
 52 53  1  0  0  0  0
 52129  1  0  0  0  0
 52130  1  0  0  0  0
 53 54  1  0  0  0  0
 53131  1  0  0  0  0
 53132  1  0  0  0  0
 54 55  1  0  0  0  0
 54133  1  0  0  0  0
 54134  1  0  0  0  0
 55 56  1  0  0  0  0
 55135  1  0  0  0  0
 55136  1  0  0  0  0
 56 57  1  0  0  0  0
 56137  1  0  0  0  0
 56138  1  0  0  0  0
 57 58  1  0  0  0  0
 57139  1  0  0  0  0
 57140  1  0  0  0  0
 58 59  1  0  0  0  0
 58141  1  0  0  0  0
 58142  1  0  0  0  0
 59143  1  0  0  0  0
 59144  1  0  0  0  0
 59145  1  0  0  0  0
M  END
