
 OpenBabel10072620153D

 21 21  0  0  1  0  0  0  0  0999 V2000
    0.8862   -0.0731    0.2869 C   0  0  0  0  0  0  0  0  0  0  0  0
    0.5256    1.0252   -0.7013 C   0  0  3  0  0  0  0  0  0  0  0  0
    0.0839    0.4090   -2.0285 C   0  0  0  0  0  0  0  0  0  0  0  0
    0.7516   -0.3304   -2.7374 O   0  0  0  0  0  0  0  0  0  0  0  0
   -1.1856    0.8173   -2.2957 N   0  0  0  0  0  0  0  0  0  0  0  0
   -1.6432    1.6384   -1.3232 C   0  0  0  0  0  0  0  0  0  0  0  0
   -2.7209    2.2031   -1.3011 O   0  0  0  0  0  0  0  0  0  0  0  0
   -0.6750    1.7503   -0.3546 N   0  0  0  0  0  0  0  0  0  0  0  0
    2.1958   -0.5580   -0.0345 O   0  0  0  0  0  0  0  0  0  0  0  0
    2.3712   -1.8158    0.5877 N   0  0  0  0  0  0  0  0  0  0  0  0
    2.4395   -2.9094   -0.2241 C   0  0  0  0  0  0  0  0  0  0  0  0
    2.9336   -3.9685    0.1442 O   0  0  0  0  0  0  0  0  0  0  0  0
    1.8693   -2.7753   -1.4457 N   0  0  0  0  0  0  0  0  0  0  0  0
    0.1507   -0.8877    0.2510 H   0  0  0  0  0  0  0  0  0  0  0  0
    0.9108    0.3242    1.3083 H   0  0  0  0  0  0  0  0  0  0  0  0
    1.3381    1.7350   -0.8842 H   0  0  0  0  0  0  0  0  0  0  0  0
   -1.7083    0.5747   -3.1197 H   0  0  0  0  0  0  0  0  0  0  0  0
   -0.7817    2.4054    0.4100 H   0  0  0  0  0  0  0  0  0  0  0  0
    3.0142   -1.8393    1.3714 H   0  0  0  0  0  0  0  0  0  0  0  0
    1.8026   -1.8442   -1.8467 H   0  0  0  0  0  0  0  0  0  0  0  0
    2.0320   -3.5303   -2.0963 H   0  0  0  0  0  0  0  0  0  0  0  0
  1  2  1  0  0  0  0
  1  9  1  0  0  0  0
  1 14  1  0  0  0  0
  1 15  1  0  0  0  0
  2  3  1  0  0  0  0
  2  8  1  0  0  0  0
  2 16  1  0  0  0  0
  3  4  2  0  0  0  0
  3  5  1  0  0  0  0
  5  6  1  0  0  0  0
  5 17  1  0  0  0  0
  6  7  2  0  0  0  0
  6  8  1  0  0  0  0
  8 18  1  0  0  0  0
  9 10  1  0  0  0  0
 10 11  1  0  0  0  0
 10 19  1  0  0  0  0
 11 12  2  0  0  0  0
 11 13  1  0  0  0  0
 13 20  1  0  0  0  0
 13 21  1  0  0  0  0
M  END
