
 OpenBabel10072619593D

 50 53  0  0  1  0  0  0  0  0999 V2000
    2.0873    2.1948    1.2414 C   0  0  0  0  0  0  0  0  0  0  0  0
    3.3294    2.2570    0.5553 O   0  0  0  0  0  0  0  0  0  0  0  0
    3.3112    1.8979   -0.7675 C   0  0  0  0  0  0  0  0  0  0  0  0
    2.1698    1.8169   -1.5669 C   0  0  0  0  0  0  0  0  0  0  0  0
    2.2884    1.4703   -2.9157 C   0  0  0  0  0  0  0  0  0  0  0  0
    3.5423    1.1672   -3.4576 C   0  0  0  0  0  0  0  0  0  0  0  0
    4.6989    1.2254   -2.6668 C   0  0  0  0  0  0  0  0  0  0  0  0
    4.5670    1.6342   -1.3283 C   0  0  0  0  0  0  0  0  0  0  0  0
    6.0523    0.9634   -3.2614 C   0  0  0  0  0  0  0  0  0  0  0  0
    6.7559   -0.0599   -2.7152 C   0  0  0  0  0  0  0  0  0  0  0  0
    8.1780   -0.3902   -3.1259 C   0  0  3  0  0  0  0  0  0  0  0  0
    8.3911   -1.7743   -2.7062 N   0  0  0  0  0  0  0  0  0  0  0  0
    7.4323   -2.2001   -1.8226 C   0  0  0  0  0  0  0  0  0  0  0  0
    7.4224   -3.2572   -1.2157 O   0  0  0  0  0  0  0  0  0  0  0  0
    6.3389   -1.1340   -1.7683 C   0  0  0  0  0  0  0  0  0  0  0  0
    5.3396   -1.2785   -1.0961 O   0  0  0  0  0  0  0  0  0  0  0  0
    9.6329   -2.4769   -2.9551 C   0  0  0  0  0  0  0  0  0  0  0  0
    9.4320   -3.6759   -3.8525 C   0  0  0  0  0  0  0  0  0  0  0  0
    8.8765   -4.8546   -3.3546 C   0  0  0  0  0  0  0  0  0  0  0  0
    8.6103   -5.8799   -4.1773 N   0  3  0  0  0  0  0  0  0  0  0  0
    8.8678   -5.8366   -5.4923 C   0  0  0  0  0  0  0  0  0  0  0  0
    9.4486   -4.7031   -6.0425 C   0  0  0  0  0  0  0  0  0  0  0  0
    9.7292   -3.6170   -5.2171 C   0  0  0  0  0  0  0  0  0  0  0  0
    9.2373    0.5212   -2.5099 C   0  0  0  0  0  0  0  0  0  0  0  0
    9.4610    0.6086   -1.1247 C   0  0  0  0  0  0  0  0  0  0  0  0
   10.4704    1.4341   -0.6181 C   0  0  0  0  0  0  0  0  0  0  0  0
   11.2787    2.1588   -1.4902 C   0  0  0  0  0  0  0  0  0  0  0  0
   11.0629    2.0977   -2.8630 C   0  0  0  0  0  0  0  0  0  0  0  0
   10.0408    1.2918   -3.3664 C   0  0  0  0  0  0  0  0  0  0  0  0
   12.6808    3.2271   -0.8050 Br  0  0  0  0  0  0  0  0  0  0  0  0
    6.4572    1.6991   -4.2103 O   0  5  0  0  0  0  0  0  0  0  0  0
    2.2932    2.2938    2.3111 H   0  0  0  0  0  0  0  0  0  0  0  0
    1.5874    1.2325    1.0909 H   0  0  0  0  0  0  0  0  0  0  0  0
    1.4348    3.0235    0.9500 H   0  0  0  0  0  0  0  0  0  0  0  0
    1.1839    2.0471   -1.1781 H   0  0  0  0  0  0  0  0  0  0  0  0
    1.4059    1.4414   -3.5484 H   0  0  0  0  0  0  0  0  0  0  0  0
    3.6331    0.9139   -4.5110 H   0  0  0  0  0  0  0  0  0  0  0  0
    5.4556    1.7282   -0.7112 H   0  0  0  0  0  0  0  0  0  0  0  0
    8.2775   -0.3982   -4.2184 H   0  0  0  0  0  0  0  0  0  0  0  0
   10.0493   -2.8059   -1.9958 H   0  0  0  0  0  0  0  0  0  0  0  0
   10.3627   -1.7955   -3.4055 H   0  0  0  0  0  0  0  0  0  0  0  0
    8.6060   -4.9995   -2.3148 H   0  0  0  0  0  0  0  0  0  0  0  0
    8.1743   -6.7146   -3.7827 H   0  0  0  0  0  0  0  0  0  0  0  0
    8.5789   -6.7011   -6.0794 H   0  0  0  0  0  0  0  0  0  0  0  0
    9.6625   -4.6538   -7.1075 H   0  0  0  0  0  0  0  0  0  0  0  0
   10.1568   -2.7117   -5.6491 H   0  0  0  0  0  0  0  0  0  0  0  0
    8.8406    0.0601   -0.4207 H   0  0  0  0  0  0  0  0  0  0  0  0
   10.6191    1.5067    0.4559 H   0  0  0  0  0  0  0  0  0  0  0  0
   11.6656    2.6829   -3.5512 H   0  0  0  0  0  0  0  0  0  0  0  0
    9.8536    1.2830   -4.4392 H   0  0  0  0  0  0  0  0  0  0  0  0
  1  2  1  0  0  0  0
  1 32  1  0  0  0  0
  1 33  1  0  0  0  0
  1 34  1  0  0  0  0
  2  3  1  0  0  0  0
  3  4  2  0  0  0  0
  3  8  1  0  0  0  0
  4  5  1  0  0  0  0
  4 35  1  0  0  0  0
  5  6  2  0  0  0  0
  5 36  1  0  0  0  0
  6  7  1  0  0  0  0
  6 37  1  0  0  0  0
  7  8  2  0  0  0  0
  7  9  1  0  0  0  0
  8 38  1  0  0  0  0
  9 10  2  0  0  0  0
  9 31  1  0  0  0  0
 10 11  1  0  0  0  0
 10 15  1  0  0  0  0
 11 12  1  0  0  0  0
 11 24  1  0  0  0  0
 11 39  1  0  0  0  0
 12 13  1  0  0  0  0
 12 17  1  0  0  0  0
 13 14  2  0  0  0  0
 13 15  1  0  0  0  0
 15 16  2  0  0  0  0
 17 18  1  0  0  0  0
 17 40  1  0  0  0  0
 17 41  1  0  0  0  0
 18 19  2  0  0  0  0
 18 23  1  0  0  0  0
 19 20  1  0  0  0  0
 19 42  1  0  0  0  0
 20 21  2  0  0  0  0
 20 43  1  0  0  0  0
 21 22  1  0  0  0  0
 21 44  1  0  0  0  0
 22 23  2  0  0  0  0
 22 45  1  0  0  0  0
 23 46  1  0  0  0  0
 24 25  2  0  0  0  0
 24 29  1  0  0  0  0
 25 26  1  0  0  0  0
 25 47  1  0  0  0  0
 26 27  2  0  0  0  0
 26 48  1  0  0  0  0
 27 28  1  0  0  0  0
 27 30  1  0  0  0  0
 28 29  2  0  0  0  0
 28 49  1  0  0  0  0
 29 50  1  0  0  0  0
M  CHG  2  20   1  31  -1
M  END
