
 OpenBabel10072619513D

 67 70  0  0  1  0  0  0  0  0999 V2000
    1.0829   -0.7093   -0.2984 C   0  0  0  0  0  0  0  0  0  0  0  0
    2.5558   -0.3666   -0.0269 C   0  0  0  0  0  0  0  0  0  0  0  0
    3.2165   -1.5610    0.7558 C   0  0  3  0  0  0  0  0  0  0  0  0
    3.9638   -0.9359    1.8303 N   0  0  0  0  0  0  0  0  0  0  0  0
    3.6278    0.4253    1.9372 C   0  0  0  0  0  0  0  0  0  0  0  0
    4.0068    1.2246    2.7792 O   0  0  0  0  0  0  0  0  0  0  0  0
    2.7036    0.7479    0.9224 N   0  0  0  0  0  0  0  0  0  0  0  0
    2.4106    2.1575    0.6349 C   0  0  0  0  0  0  0  0  0  0  0  0
    0.9233    2.4886    0.5090 C   0  0  0  0  0  0  0  0  0  0  0  0
    0.6738    3.9782    0.5764 C   0  0  0  0  0  0  0  0  0  0  0  0
    0.7790    4.7745   -0.5749 C   0  0  0  0  0  0  0  0  0  0  0  0
    0.5782    6.1542   -0.4959 C   0  0  0  0  0  0  0  0  0  0  0  0
    0.2770    6.7359    0.7293 C   0  0  0  0  0  0  0  0  0  0  0  0
    0.1728    5.9651    1.8804 C   0  0  0  0  0  0  0  0  0  0  0  0
    0.3740    4.5861    1.8054 C   0  0  0  0  0  0  0  0  0  0  0  0
    0.0890    8.0604    0.8030 F   0  0  0  0  0  0  0  0  0  0  0  0
    4.7627   -1.6506    2.7685 C   0  0  0  0  0  0  0  0  0  0  0  0
    5.6920   -0.9904    3.5797 C   0  0  0  0  0  0  0  0  0  0  0  0
    6.4848   -1.6881    4.4962 C   0  0  0  0  0  0  0  0  0  0  0  0
    6.3625   -3.0685    4.6223 C   0  0  0  0  0  0  0  0  0  0  0  0
    5.4440   -3.7625    3.8297 C   0  0  0  0  0  0  0  0  0  0  0  0
    4.6505   -3.0439    2.9124 C   0  0  0  0  0  0  0  0  0  0  0  0
    5.2602   -5.2519    3.9838 C   0  0  0  0  0  0  0  0  0  0  0  0
    6.3670   -5.8894    4.4550 F   0  0  0  0  0  0  0  0  0  0  0  0
    4.2532   -5.5579    4.8482 F   0  0  0  0  0  0  0  0  0  0  0  0
    4.9430   -5.8714    2.8125 F   0  0  0  0  0  0  0  0  0  0  0  0
    3.9759   -2.4882   -0.0962 N   0  0  0  0  0  0  0  0  0  0  0  0
    3.6776   -3.7325   -0.6055 C   0  0  0  0  0  0  0  0  0  0  0  0
    4.5274   -4.3062   -1.2913 O   0  0  0  0  0  0  0  0  0  0  0  0
    2.4441   -4.2412   -0.2775 N   0  0  0  0  0  0  0  0  0  0  0  0
    1.9681   -5.5505   -0.5227 C   0  0  0  0  0  0  0  0  0  0  0  0
    2.7523   -6.5851   -1.0312 C   0  0  0  0  0  0  0  0  0  0  0  0
    2.2121   -7.8609   -1.2217 C   0  0  0  0  0  0  0  0  0  0  0  0
    0.8797   -8.1150   -0.9047 C   0  0  0  0  0  0  0  0  0  0  0  0
    0.0719   -7.0932   -0.3923 C   0  0  0  0  0  0  0  0  0  0  0  0
    0.6309   -5.8155   -0.1977 C   0  0  0  0  0  0  0  0  0  0  0  0
   -1.3660   -7.3495   -0.0166 C   0  0  0  0  0  0  0  0  0  0  0  0
   -1.8732   -8.4996   -0.5385 F   0  0  0  0  0  0  0  0  0  0  0  0
   -1.5401   -7.4363    1.3309 F   0  0  0  0  0  0  0  0  0  0  0  0
   -2.1956   -6.3519   -0.4339 F   0  0  0  0  0  0  0  0  0  0  0  0
    5.2687   -2.0061   -0.4448 O   0  0  0  0  0  0  0  0  0  0  0  0
    3.2466   -0.0325   -1.3601 C   0  0  0  0  0  0  0  0  0  0  0  0
    0.5179   -0.8114    0.6352 H   0  0  0  0  0  0  0  0  0  0  0  0
    0.9948   -1.6494   -0.8535 H   0  0  0  0  0  0  0  0  0  0  0  0
    0.5883    0.0556   -0.9015 H   0  0  0  0  0  0  0  0  0  0  0  0
    2.4230   -2.1268    1.2585 H   0  0  0  0  0  0  0  0  0  0  0  0
    2.9554    2.4478   -0.2703 H   0  0  0  0  0  0  0  0  0  0  0  0
    2.8368    2.7682    1.4398 H   0  0  0  0  0  0  0  0  0  0  0  0
    0.3545    1.9858    1.3012 H   0  0  0  0  0  0  0  0  0  0  0  0
    0.5239    2.1151   -0.4389 H   0  0  0  0  0  0  0  0  0  0  0  0
    1.0223    4.3288   -1.5367 H   0  0  0  0  0  0  0  0  0  0  0  0
    0.6599    6.7797   -1.3791 H   0  0  0  0  0  0  0  0  0  0  0  0
   -0.0564    6.4414    2.8278 H   0  0  0  0  0  0  0  0  0  0  0  0
    0.3051    3.9900    2.7136 H   0  0  0  0  0  0  0  0  0  0  0  0
    5.8491    0.0830    3.5013 H   0  0  0  0  0  0  0  0  0  0  0  0
    7.2019   -1.1437    5.1049 H   0  0  0  0  0  0  0  0  0  0  0  0
    6.9877   -3.5964    5.3410 H   0  0  0  0  0  0  0  0  0  0  0  0
    3.9252   -3.6088    2.3353 H   0  0  0  0  0  0  0  0  0  0  0  0
    1.7623   -3.6103    0.1050 H   0  0  0  0  0  0  0  0  0  0  0  0
    3.8008   -6.4440   -1.2757 H   0  0  0  0  0  0  0  0  0  0  0  0
    2.8409   -8.6571   -1.6150 H   0  0  0  0  0  0  0  0  0  0  0  0
    0.4781   -9.1167   -1.0535 H   0  0  0  0  0  0  0  0  0  0  0  0
   -0.0033   -5.0314    0.2128 H   0  0  0  0  0  0  0  0  0  0  0  0
    5.6561   -2.7781   -0.9149 H   0  0  0  0  0  0  0  0  0  0  0  0
    3.2344   -0.8839   -2.0489 H   0  0  0  0  0  0  0  0  0  0  0  0
    4.2846    0.2824   -1.2078 H   0  0  0  0  0  0  0  0  0  0  0  0
    2.7359    0.7917   -1.8712 H   0  0  0  0  0  0  0  0  0  0  0  0
  1  2  1  0  0  0  0
  1 43  1  0  0  0  0
  1 44  1  0  0  0  0
  1 45  1  0  0  0  0
  2  3  1  0  0  0  0
  2  7  1  0  0  0  0
  2 42  1  0  0  0  0
  3  4  1  0  0  0  0
  3 27  1  0  0  0  0
  3 46  1  0  0  0  0
  4  5  1  0  0  0  0
  4 17  1  0  0  0  0
  5  6  2  0  0  0  0
  5  7  1  0  0  0  0
  7  8  1  0  0  0  0
  8  9  1  0  0  0  0
  8 47  1  0  0  0  0
  8 48  1  0  0  0  0
  9 10  1  0  0  0  0
  9 49  1  0  0  0  0
  9 50  1  0  0  0  0
 10 11  2  0  0  0  0
 10 15  1  0  0  0  0
 11 12  1  0  0  0  0
 11 51  1  0  0  0  0
 12 13  2  0  0  0  0
 12 52  1  0  0  0  0
 13 14  1  0  0  0  0
 13 16  1  0  0  0  0
 14 15  2  0  0  0  0
 14 53  1  0  0  0  0
 15 54  1  0  0  0  0
 17 18  2  0  0  0  0
 17 22  1  0  0  0  0
 18 19  1  0  0  0  0
 18 55  1  0  0  0  0
 19 20  2  0  0  0  0
 19 56  1  0  0  0  0
 20 21  1  0  0  0  0
 20 57  1  0  0  0  0
 21 22  2  0  0  0  0
 21 23  1  0  0  0  0
 22 58  1  0  0  0  0
 23 24  1  0  0  0  0
 23 25  1  0  0  0  0
 23 26  1  0  0  0  0
 27 28  1  0  0  0  0
 27 41  1  0  0  0  0
 28 29  2  0  0  0  0
 28 30  1  0  0  0  0
 30 31  1  0  0  0  0
 30 59  1  0  0  0  0
 31 32  2  0  0  0  0
 31 36  1  0  0  0  0
 32 33  1  0  0  0  0
 32 60  1  0  0  0  0
 33 34  2  0  0  0  0
 33 61  1  0  0  0  0
 34 35  1  0  0  0  0
 34 62  1  0  0  0  0
 35 36  2  0  0  0  0
 35 37  1  0  0  0  0
 36 63  1  0  0  0  0
 37 38  1  0  0  0  0
 37 39  1  0  0  0  0
 37 40  1  0  0  0  0
 41 64  1  0  0  0  0
 42 65  1  0  0  0  0
 42 66  1  0  0  0  0
 42 67  1  0  0  0  0
M  END
