
 OpenBabel10072619563D

 55 58  0  0  0  0  0  0  0  0999 V2000
   -1.4297    1.8108    3.6449 C   0  0  0  0  0  0  0  0  0  0  0  0
   -1.2410    0.7260    4.5081 C   0  0  0  0  0  0  0  0  0  0  0  0
   -2.3403    0.0075    4.9819 C   0  0  0  0  0  0  0  0  0  0  0  0
   -3.6290    0.3834    4.5940 C   0  0  0  0  0  0  0  0  0  0  0  0
   -3.8151    1.4778    3.7385 C   0  0  0  0  0  0  0  0  0  0  0  0
   -2.7183    2.1982    3.2585 C   0  0  0  0  0  0  0  0  0  0  0  0
   -2.8295    3.2715    2.3502 N   0  0  0  0  0  0  0  0  0  0  0  0
   -3.9885    3.9235    1.9563 C   0  0  0  0  0  0  0  0  0  0  0  0
   -5.0806    3.8097    2.4976 O   0  0  0  0  0  0  0  0  0  0  0  0
   -3.7440    4.6821    0.8236 N   0  0  0  0  0  0  0  0  0  0  0  0
   -4.6919    5.4556    0.1106 C   0  0  0  0  0  0  0  0  0  0  0  0
   -4.4326    5.6961   -1.2535 C   0  0  0  0  0  0  0  0  0  0  0  0
   -5.3711    6.3604   -2.0500 C   0  0  0  0  0  0  0  0  0  0  0  0
   -6.5398    6.8515   -1.4695 C   0  0  0  0  0  0  0  0  0  0  0  0
   -6.7695    6.6665   -0.1054 C   0  0  0  0  0  0  0  0  0  0  0  0
   -5.8545    5.9689    0.6856 C   0  0  0  0  0  0  0  0  0  0  0  0
   -8.2108    7.2878    0.5997 Cl  0  0  0  0  0  0  0  0  0  0  0  0
   -3.2982    5.1135   -1.7794 O   0  0  0  0  0  0  0  0  0  0  0  0
   -2.5056    5.8209   -2.6630 C   0  0  0  0  0  0  0  0  0  0  0  0
   -1.7123    5.0476   -3.5393 C   0  0  0  0  0  0  0  0  0  0  0  0
   -0.8496    5.6858   -4.4339 C   0  0  0  0  0  0  0  0  0  0  0  0
   -0.7527    7.0778   -4.4222 C   0  0  0  0  0  0  0  0  0  0  0  0
   -1.4907    7.8404   -3.5155 C   0  0  0  0  0  0  0  0  0  0  0  0
   -2.3631    7.2110   -2.6276 C   0  0  0  0  0  0  0  0  0  0  0  0
    0.3120    7.8669   -5.5203 Cl  0  0  0  0  0  0  0  0  0  0  0  0
   -1.8243    3.6414   -3.4435 N   0  0  0  0  0  0  0  0  0  0  0  0
   -0.8491    2.7161   -3.7879 C   0  0  0  0  0  0  0  0  0  0  0  0
    0.2433    2.9866   -4.2610 O   0  0  0  0  0  0  0  0  0  0  0  0
   -1.2790    1.4396   -3.4548 N   0  0  0  0  0  0  0  0  0  0  0  0
   -0.4925    0.2740   -3.3585 C   0  0  0  0  0  0  0  0  0  0  0  0
    0.9040    0.2748   -3.3589 C   0  0  0  0  0  0  0  0  0  0  0  0
    1.6191   -0.9226   -3.2080 C   0  0  0  0  0  0  0  0  0  0  0  0
    0.9391   -2.1341   -3.0584 C   0  0  0  0  0  0  0  0  0  0  0  0
   -0.4566   -2.1391   -3.0555 C   0  0  0  0  0  0  0  0  0  0  0  0
   -1.1671   -0.9418   -3.2002 C   0  0  0  0  0  0  0  0  0  0  0  0
    1.7536   -3.6461   -2.8699 Cl  0  0  0  0  0  0  0  0  0  0  0  0
    3.3461   -0.8363   -3.1902 Cl  0  0  0  0  0  0  0  0  0  0  0  0
   -5.0369   -0.4753    5.1115 Cl  0  0  0  0  0  0  0  0  0  0  0  0
   -2.0374   -1.3341    6.0260 Cl  0  0  0  0  0  0  0  0  0  0  0  0
   -0.5513    2.3414    3.2833 H   0  0  0  0  0  0  0  0  0  0  0  0
   -0.2331    0.4412    4.8003 H   0  0  0  0  0  0  0  0  0  0  0  0
   -4.8272    1.7392    3.4451 H   0  0  0  0  0  0  0  0  0  0  0  0
   -1.9662    3.7037    2.0543 H   0  0  0  0  0  0  0  0  0  0  0  0
   -2.9399    4.3990    0.2815 H   0  0  0  0  0  0  0  0  0  0  0  0
   -5.2146    6.4826   -3.1190 H   0  0  0  0  0  0  0  0  0  0  0  0
   -7.2742    7.3692   -2.0823 H   0  0  0  0  0  0  0  0  0  0  0  0
   -6.0661    5.8374    1.7432 H   0  0  0  0  0  0  0  0  0  0  0  0
   -0.2518    5.1185   -5.1432 H   0  0  0  0  0  0  0  0  0  0  0  0
   -1.3812    8.9223   -3.4933 H   0  0  0  0  0  0  0  0  0  0  0  0
   -2.8993    7.8210   -1.9050 H   0  0  0  0  0  0  0  0  0  0  0  0
   -2.5101    3.3230   -2.7707 H   0  0  0  0  0  0  0  0  0  0  0  0
   -2.2782    1.3132   -3.4112 H   0  0  0  0  0  0  0  0  0  0  0  0
    1.4634    1.2008   -3.4582 H   0  0  0  0  0  0  0  0  0  0  0  0
   -1.0012   -3.0724   -2.9369 H   0  0  0  0  0  0  0  0  0  0  0  0
   -2.2543   -0.9822   -3.1893 H   0  0  0  0  0  0  0  0  0  0  0  0
  1  2  2  0  0  0  0
  1  6  1  0  0  0  0
  1 40  1  0  0  0  0
  2  3  1  0  0  0  0
  2 41  1  0  0  0  0
  3  4  2  0  0  0  0
  3 39  1  0  0  0  0
  4  5  1  0  0  0  0
  4 38  1  0  0  0  0
  5  6  2  0  0  0  0
  5 42  1  0  0  0  0
  6  7  1  0  0  0  0
  7  8  1  0  0  0  0
  7 43  1  0  0  0  0
  8  9  2  0  0  0  0
  8 10  1  0  0  0  0
 10 11  1  0  0  0  0
 10 44  1  0  0  0  0
 11 12  2  0  0  0  0
 11 16  1  0  0  0  0
 12 13  1  0  0  0  0
 12 18  1  0  0  0  0
 13 14  2  0  0  0  0
 13 45  1  0  0  0  0
 14 15  1  0  0  0  0
 14 46  1  0  0  0  0
 15 16  2  0  0  0  0
 15 17  1  0  0  0  0
 16 47  1  0  0  0  0
 18 19  1  0  0  0  0
 19 20  2  0  0  0  0
 19 24  1  0  0  0  0
 20 21  1  0  0  0  0
 20 26  1  0  0  0  0
 21 22  2  0  0  0  0
 21 48  1  0  0  0  0
 22 23  1  0  0  0  0
 22 25  1  0  0  0  0
 23 24  2  0  0  0  0
 23 49  1  0  0  0  0
 24 50  1  0  0  0  0
 26 27  1  0  0  0  0
 26 51  1  0  0  0  0
 27 28  2  0  0  0  0
 27 29  1  0  0  0  0
 29 30  1  0  0  0  0
 29 52  1  0  0  0  0
 30 31  2  0  0  0  0
 30 35  1  0  0  0  0
 31 32  1  0  0  0  0
 31 53  1  0  0  0  0
 32 33  2  0  0  0  0
 32 37  1  0  0  0  0
 33 34  1  0  0  0  0
 33 36  1  0  0  0  0
 34 35  2  0  0  0  0
 34 54  1  0  0  0  0
 35 55  1  0  0  0  0
M  END
