
 OpenBabel10072619543D

 38 38  0  0  0  0  0  0  0  0999 V2000
    1.5481    1.9829   -1.6413 C   0  0  0  0  0  0  0  0  0  0  0  0
    1.7817    0.7785   -0.7399 C   0  0  0  0  0  0  0  0  0  0  0  0
    2.7929    1.0789    0.2752 N   0  0  0  0  0  0  0  0  0  0  0  0
    2.3447    1.1124    1.6664 C   0  0  0  0  0  0  0  0  0  0  0  0
    1.5628    2.3794    1.9789 C   0  0  0  0  0  0  0  0  0  0  0  0
    4.1090    1.3333   -0.0587 C   0  0  0  0  0  0  0  0  0  0  0  0
    4.9808    0.5812   -0.6481 N   0  0  0  0  0  0  0  0  0  0  0  0
    4.7126   -0.7558   -0.9509 C   0  0  0  0  0  0  0  0  0  0  0  0
    4.4143   -1.6991    0.0389 C   0  0  0  0  0  0  0  0  0  0  0  0
    4.2261   -3.0447   -0.2923 C   0  0  0  0  0  0  0  0  0  0  0  0
    4.3679   -3.4627   -1.6213 C   0  0  0  0  0  0  0  0  0  0  0  0
    4.6856   -2.5272   -2.6108 C   0  0  0  0  0  0  0  0  0  0  0  0
    4.8640   -1.1843   -2.2716 C   0  0  0  0  0  0  0  0  0  0  0  0
    4.1852   -5.1131   -2.0978 Cl  0  0  0  0  0  0  0  0  0  0  0  0
    3.8199   -4.1360    0.9887 Cl  0  0  0  0  0  0  0  0  0  0  0  0
    4.6993    2.9624    0.3267 S   0  0  0  0  0  0  0  0  0  0  0  0
    6.0969    2.6742    1.3626 C   0  0  0  0  0  0  0  0  0  0  0  0
    6.2221    3.3293    2.5413 C   0  0  0  0  0  0  0  0  0  0  0  0
    7.4921    3.0679    3.6966 Cl  0  0  0  0  0  0  0  0  0  0  0  0
    5.0477    4.4954    3.1164 Cl  0  0  0  0  0  0  0  0  0  0  0  0
    6.9671    1.7692    0.7924 N   0  0  0  0  0  0  0  0  0  0  0  0
    8.2662    1.4569    1.0318 C   0  0  0  0  0  0  0  0  0  0  0  0
    8.8563    0.5736    0.4194 O   0  0  0  0  0  0  0  0  0  0  0  0
    0.6841    1.8043   -2.2881 H   0  0  0  0  0  0  0  0  0  0  0  0
    2.4154    2.1734   -2.2826 H   0  0  0  0  0  0  0  0  0  0  0  0
    1.3554    2.8912   -1.0597 H   0  0  0  0  0  0  0  0  0  0  0  0
    2.0674   -0.0893   -1.3431 H   0  0  0  0  0  0  0  0  0  0  0  0
    0.8298    0.5114   -0.2617 H   0  0  0  0  0  0  0  0  0  0  0  0
    3.2052    1.0143    2.3412 H   0  0  0  0  0  0  0  0  0  0  0  0
    1.7049    0.2421    1.8642 H   0  0  0  0  0  0  0  0  0  0  0  0
    2.1486    3.2874    1.8032 H   0  0  0  0  0  0  0  0  0  0  0  0
    1.2544    2.3793    3.0285 H   0  0  0  0  0  0  0  0  0  0  0  0
    0.6591    2.4370    1.3624 H   0  0  0  0  0  0  0  0  0  0  0  0
    4.3425   -1.3787    1.0749 H   0  0  0  0  0  0  0  0  0  0  0  0
    4.8150   -2.8409   -3.6448 H   0  0  0  0  0  0  0  0  0  0  0  0
    5.1465   -0.4672   -3.0401 H   0  0  0  0  0  0  0  0  0  0  0  0
    6.5906    1.2616   -0.0115 H   0  0  0  0  0  0  0  0  0  0  0  0
    8.7808    2.0734    1.7725 H   0  0  0  0  0  0  0  0  0  0  0  0
  1  2  1  0  0  0  0
  1 24  1  0  0  0  0
  1 25  1  0  0  0  0
  1 26  1  0  0  0  0
  2  3  1  0  0  0  0
  2 27  1  0  0  0  0
  2 28  1  0  0  0  0
  3  4  1  0  0  0  0
  3  6  1  0  0  0  0
  4  5  1  0  0  0  0
  4 29  1  0  0  0  0
  4 30  1  0  0  0  0
  5 31  1  0  0  0  0
  5 32  1  0  0  0  0
  5 33  1  0  0  0  0
  6  7  2  3  0  0  0
  6 16  1  0  0  0  0
  7  8  1  0  0  0  0
  8  9  2  0  0  0  0
  8 13  1  0  0  0  0
  9 10  1  0  0  0  0
  9 34  1  0  0  0  0
 10 11  2  0  0  0  0
 10 15  1  0  0  0  0
 11 12  1  0  0  0  0
 11 14  1  0  0  0  0
 12 13  2  0  0  0  0
 12 35  1  0  0  0  0
 13 36  1  0  0  0  0
 16 17  1  0  0  0  0
 17 18  2  0  0  0  0
 17 21  1  0  0  0  0
 18 19  1  0  0  0  0
 18 20  1  0  0  0  0
 21 22  1  0  0  0  0
 21 37  1  0  0  0  0
 22 23  2  0  0  0  0
 22 38  1  0  0  0  0
M  END
