
 OpenBabel10072620203D

 52 56  0  0  0  0  0  0  0  0999 V2000
   -7.4710    1.6432    6.3974 C   0  0  0  0  0  0  0  0  0  0  0  0
   -6.4793    1.7787    5.2787 C   0  0  0  0  0  0  0  0  0  0  0  0
   -5.6238    0.7089    4.9801 C   0  0  0  0  0  0  0  0  0  0  0  0
   -4.7084    0.8038    3.9319 C   0  0  0  0  0  0  0  0  0  0  0  0
   -4.6541    1.9760    3.1741 C   0  0  0  0  0  0  0  0  0  0  0  0
   -5.4668    3.0688    3.4886 C   0  0  0  0  0  0  0  0  0  0  0  0
   -6.3825    2.9636    4.5371 C   0  0  0  0  0  0  0  0  0  0  0  0
   -3.5174    2.0808    1.8115 S   0  0  0  0  0  0  0  0  0  0  0  0
   -3.3239    3.4768    1.4761 O   0  0  0  0  0  0  0  0  0  0  0  0
   -2.3888    1.2265    2.1121 O   0  0  0  0  0  0  0  0  0  0  0  0
   -4.3339    1.3616    0.5269 N   0  0  0  0  0  0  0  0  0  0  0  0
   -5.6581    1.8150    0.2947 C   0  0  0  0  0  0  0  0  0  0  0  0
   -6.5405    0.8598    0.6525 N   0  0  0  0  0  0  0  0  0  0  0  0
   -7.8360    1.1997    0.5559 C   0  0  0  0  0  0  0  0  0  0  0  0
   -8.8129    0.2719    0.8964 C   0  0  0  0  0  0  0  0  0  0  0  0
  -10.1695    0.5929    0.8355 C   0  0  0  0  0  0  0  0  0  0  0  0
  -10.5560    1.8618    0.4245 C   0  0  0  0  0  0  0  0  0  0  0  0
   -9.5832    2.7957    0.0651 C   0  0  0  0  0  0  0  0  0  0  0  0
   -8.2301    2.4877    0.1190 C   0  0  0  0  0  0  0  0  0  0  0  0
   -7.3247    3.4177   -0.2468 N   0  0  0  0  0  0  0  0  0  0  0  0
   -6.0132    3.1020   -0.1683 C   0  0  0  0  0  0  0  0  0  0  0  0
   -5.0175    3.9735   -0.6640 N   0  0  0  0  0  0  0  0  0  0  0  0
   -5.0789    5.2643   -1.2305 C   0  0  0  0  0  0  0  0  0  0  0  0
   -3.8911    5.7865   -1.7762 C   0  0  0  0  0  0  0  0  0  0  0  0
   -3.8673    7.0392   -2.3916 C   0  0  0  0  0  0  0  0  0  0  0  0
   -5.0408    7.7864   -2.4916 C   0  0  0  0  0  0  0  0  0  0  0  0
   -6.2256    7.2864   -1.9632 C   0  0  0  0  0  0  0  0  0  0  0  0
   -6.2474    6.0224   -1.3594 C   0  0  0  0  0  0  0  0  0  0  0  0
   -5.1018    9.0167   -3.0930 O   0  0  0  0  0  0  0  0  0  0  0  0
   -3.9723    9.2199   -3.9481 C   0  0  0  0  0  0  0  0  0  0  0  0
   -2.6843    8.8528   -3.2277 C   0  0  0  0  0  0  0  0  0  0  0  0
   -2.6611    7.4601   -2.8926 O   0  0  0  0  0  0  0  0  0  0  0  0
   -8.0417    0.7158    6.2798 H   0  0  0  0  0  0  0  0  0  0  0  0
   -8.1875    2.4707    6.4026 H   0  0  0  0  0  0  0  0  0  0  0  0
   -6.9562    1.6267    7.3632 H   0  0  0  0  0  0  0  0  0  0  0  0
   -5.6754   -0.2108    5.5588 H   0  0  0  0  0  0  0  0  0  0  0  0
   -4.0537   -0.0362    3.7115 H   0  0  0  0  0  0  0  0  0  0  0  0
   -5.4083    3.9945    2.9197 H   0  0  0  0  0  0  0  0  0  0  0  0
   -7.0268    3.8104    4.7643 H   0  0  0  0  0  0  0  0  0  0  0  0
   -4.3131    0.3463    0.6018 H   0  0  0  0  0  0  0  0  0  0  0  0
   -8.5119   -0.7232    1.2152 H   0  0  0  0  0  0  0  0  0  0  0  0
  -10.9188   -0.1451    1.1115 H   0  0  0  0  0  0  0  0  0  0  0  0
  -11.6086    2.1297    0.3774 H   0  0  0  0  0  0  0  0  0  0  0  0
   -9.8855    3.7874   -0.2637 H   0  0  0  0  0  0  0  0  0  0  0  0
   -4.1409    3.8549   -0.1474 H   0  0  0  0  0  0  0  0  0  0  0  0
   -2.9722    5.2061   -1.7313 H   0  0  0  0  0  0  0  0  0  0  0  0
   -7.1398    7.8679   -2.0362 H   0  0  0  0  0  0  0  0  0  0  0  0
   -7.1974    5.6609   -0.9793 H   0  0  0  0  0  0  0  0  0  0  0  0
   -3.9605   10.2762   -4.2347 H   0  0  0  0  0  0  0  0  0  0  0  0
   -4.1116    8.6215   -4.8576 H   0  0  0  0  0  0  0  0  0  0  0  0
   -2.5608    9.4354   -2.3062 H   0  0  0  0  0  0  0  0  0  0  0  0
   -1.8234    9.0524   -3.8740 H   0  0  0  0  0  0  0  0  0  0  0  0
  1  2  1  0  0  0  0
  1 33  1  0  0  0  0
  1 34  1  0  0  0  0
  1 35  1  0  0  0  0
  2  3  2  0  0  0  0
  2  7  1  0  0  0  0
  3  4  1  0  0  0  0
  3 36  1  0  0  0  0
  4  5  2  0  0  0  0
  4 37  1  0  0  0  0
  5  6  1  0  0  0  0
  5  8  1  0  0  0  0
  6  7  2  0  0  0  0
  6 38  1  0  0  0  0
  7 39  1  0  0  0  0
  8  9  2  0  0  0  0
  8 10  2  0  0  0  0
  8 11  1  0  0  0  0
 11 12  1  0  0  0  0
 11 40  1  0  0  0  0
 12 13  2  0  0  0  0
 12 21  1  0  0  0  0
 13 14  1  0  0  0  0
 14 15  2  0  0  0  0
 14 19  1  0  0  0  0
 15 16  1  0  0  0  0
 15 41  1  0  0  0  0
 16 17  2  0  0  0  0
 16 42  1  0  0  0  0
 17 18  1  0  0  0  0
 17 43  1  0  0  0  0
 18 19  2  0  0  0  0
 18 44  1  0  0  0  0
 19 20  1  0  0  0  0
 20 21  2  0  0  0  0
 21 22  1  0  0  0  0
 22 23  1  0  0  0  0
 22 45  1  0  0  0  0
 23 24  2  0  0  0  0
 23 28  1  0  0  0  0
 24 25  1  0  0  0  0
 24 46  1  0  0  0  0
 25 26  2  0  0  0  0
 25 32  1  0  0  0  0
 26 27  1  0  0  0  0
 26 29  1  0  0  0  0
 27 28  2  0  0  0  0
 27 47  1  0  0  0  0
 28 48  1  0  0  0  0
 29 30  1  0  0  0  0
 30 31  1  0  0  0  0
 30 49  1  0  0  0  0
 30 50  1  0  0  0  0
 31 32  1  0  0  0  0
 31 51  1  0  0  0  0
 31 52  1  0  0  0  0
M  END
