
 OpenBabel10072620163D

 37 38  0  0  0  0  0  0  0  0999 V2000
    1.5579    0.0671    1.0477 C   0  0  0  0  0  0  0  0  0  0  0  0
    2.9091   -0.1195    0.4307 C   0  0  0  0  0  0  0  0  0  0  0  0
    3.4565   -1.2502   -0.0450 C   0  0  0  0  0  0  0  0  0  0  0  0
    4.8030   -0.9177   -0.5253 C   0  0  0  0  0  0  0  0  0  0  0  0
    5.6001   -1.7171   -0.9840 O   0  0  0  0  0  0  0  0  0  0  0  0
    4.9670    0.4586   -0.2845 N   0  0  0  0  0  0  0  0  0  0  0  0
    3.7692    0.9835    0.2871 N   0  0  0  0  0  0  0  0  0  0  0  0
    3.2498    2.1817   -0.3977 C   0  0  0  0  0  0  0  0  0  0  0  0
    6.2102    1.1342   -0.1624 C   0  0  0  0  0  0  0  0  0  0  0  0
    7.3419    0.6913   -0.8604 C   0  0  0  0  0  0  0  0  0  0  0  0
    8.5648    1.3621   -0.7519 C   0  0  0  0  0  0  0  0  0  0  0  0
    8.6774    2.4832    0.0643 C   0  0  0  0  0  0  0  0  0  0  0  0
    7.5698    2.9298    0.7777 C   0  0  0  0  0  0  0  0  0  0  0  0
    6.3480    2.2589    0.6659 C   0  0  0  0  0  0  0  0  0  0  0  0
    2.7471   -2.7846   -0.0768 S   0  0  0  0  0  0  0  0  0  0  0  0
    3.5103   -3.7257   -0.8719 O   0  0  0  0  0  0  0  0  0  0  0  0
    2.3703   -3.1485    1.2776 O   0  0  0  0  0  0  0  0  0  0  0  0
    1.2521   -2.5962   -0.9419 N   0  0  0  0  0  0  0  0  0  0  0  0
    1.4269   -2.2664   -2.3772 C   0  0  0  0  0  0  0  0  0  0  0  0
    0.3458   -3.7573   -0.7649 C   0  0  0  0  0  0  0  0  0  0  0  0
    1.0573   -0.8746    1.2827 H   0  0  0  0  0  0  0  0  0  0  0  0
    0.9051    0.6316    0.3743 H   0  0  0  0  0  0  0  0  0  0  0  0
    1.6480    0.6245    1.9864 H   0  0  0  0  0  0  0  0  0  0  0  0
    4.0164    2.9500   -0.5297 H   0  0  0  0  0  0  0  0  0  0  0  0
    2.4431    2.6309    0.1912 H   0  0  0  0  0  0  0  0  0  0  0  0
    2.8580    1.9233   -1.3884 H   0  0  0  0  0  0  0  0  0  0  0  0
    7.2949   -0.1729   -1.5180 H   0  0  0  0  0  0  0  0  0  0  0  0
    9.4274    1.0033   -1.3079 H   0  0  0  0  0  0  0  0  0  0  0  0
    9.6290    3.0004    0.1521 H   0  0  0  0  0  0  0  0  0  0  0  0
    7.6559    3.7939    1.4313 H   0  0  0  0  0  0  0  0  0  0  0  0
    5.5138    2.6104    1.2666 H   0  0  0  0  0  0  0  0  0  0  0  0
    2.0762   -1.3954   -2.5007 H   0  0  0  0  0  0  0  0  0  0  0  0
    0.4563   -2.0052   -2.8116 H   0  0  0  0  0  0  0  0  0  0  0  0
    1.8401   -3.1132   -2.9333 H   0  0  0  0  0  0  0  0  0  0  0  0
    0.0812   -3.8786    0.2893 H   0  0  0  0  0  0  0  0  0  0  0  0
    0.8041   -4.6772   -1.1403 H   0  0  0  0  0  0  0  0  0  0  0  0
   -0.5875   -3.5865   -1.3115 H   0  0  0  0  0  0  0  0  0  0  0  0
  1  2  1  0  0  0  0
  1 21  1  0  0  0  0
  1 22  1  0  0  0  0
  1 23  1  0  0  0  0
  2  3  2  0  0  0  0
  2  7  1  0  0  0  0
  3  4  1  0  0  0  0
  3 15  1  0  0  0  0
  4  5  2  0  0  0  0
  4  6  1  0  0  0  0
  6  7  1  0  0  0  0
  6  9  1  0  0  0  0
  7  8  1  0  0  0  0
  8 24  1  0  0  0  0
  8 25  1  0  0  0  0
  8 26  1  0  0  0  0
  9 10  2  0  0  0  0
  9 14  1  0  0  0  0
 10 11  1  0  0  0  0
 10 27  1  0  0  0  0
 11 12  2  0  0  0  0
 11 28  1  0  0  0  0
 12 13  1  0  0  0  0
 12 29  1  0  0  0  0
 13 14  2  0  0  0  0
 13 30  1  0  0  0  0
 14 31  1  0  0  0  0
 15 16  2  0  0  0  0
 15 17  2  0  0  0  0
 15 18  1  0  0  0  0
 18 19  1  0  0  0  0
 18 20  1  0  0  0  0
 19 32  1  0  0  0  0
 19 33  1  0  0  0  0
 19 34  1  0  0  0  0
 20 35  1  0  0  0  0
 20 36  1  0  0  0  0
 20 37  1  0  0  0  0
M  END
