
 OpenBabel10072619533D

 29 30  0  0  0  0  0  0  0  0999 V2000
   -2.4161   -0.0271   -0.2318 C   0  0  0  0  0  0  0  0  0  0  0  0
   -0.9569   -0.0096   -0.0328 N   0  3  0  0  0  0  0  0  0  0  0  0
   -0.3301    1.1390    0.3024 C   0  0  0  0  0  0  0  0  0  0  0  0
    1.0498    1.1665    0.4777 C   0  0  0  0  0  0  0  0  0  0  0  0
    1.8064    0.0041    0.3022 C   0  0  0  0  0  0  0  0  0  0  0  0
    1.1261   -1.1660   -0.0474 C   0  0  0  0  0  0  0  0  0  0  0  0
   -0.2553   -1.1512   -0.2086 C   0  0  0  0  0  0  0  0  0  0  0  0
    3.2668    0.0151    0.4723 C   0  0  0  0  0  0  0  0  0  0  0  0
    3.8560    0.4750    1.6614 C   0  0  0  0  0  0  0  0  0  0  0  0
    5.2483    0.4935    1.8247 C   0  0  0  0  0  0  0  0  0  0  0  0
    6.0796    0.0536    0.7979 C   0  0  0  0  0  0  0  0  0  0  0  0
    5.5063   -0.4086   -0.3869 C   0  0  0  0  0  0  0  0  0  0  0  0
    4.1175   -0.4291   -0.5505 C   0  0  0  0  0  0  0  0  0  0  0  0
    7.4448    0.0234    0.8209 O   0  0  0  0  0  0  0  0  0  0  0  0
    8.0862    0.5003    1.9979 C   0  0  0  0  0  0  0  0  0  0  0  0
   -2.8518    0.9108    0.1210 H   0  0  0  0  0  0  0  0  0  0  0  0
   -2.8290   -0.8627    0.3398 H   0  0  0  0  0  0  0  0  0  0  0  0
   -2.5999   -0.1535   -1.3019 H   0  0  0  0  0  0  0  0  0  0  0  0
   -0.9355    2.0328    0.4233 H   0  0  0  0  0  0  0  0  0  0  0  0
    1.5364    2.1065    0.7360 H   0  0  0  0  0  0  0  0  0  0  0  0
    1.6705   -2.0992   -0.1877 H   0  0  0  0  0  0  0  0  0  0  0  0
   -0.8095   -2.0455   -0.4799 H   0  0  0  0  0  0  0  0  0  0  0  0
    3.2375    0.8177    2.4887 H   0  0  0  0  0  0  0  0  0  0  0  0
    5.6497    0.8552    2.7662 H   0  0  0  0  0  0  0  0  0  0  0  0
    6.1507   -0.7525   -1.1937 H   0  0  0  0  0  0  0  0  0  0  0  0
    3.7163   -0.7844   -1.4971 H   0  0  0  0  0  0  0  0  0  0  0  0
    9.1670    0.4245    1.8443 H   0  0  0  0  0  0  0  0  0  0  0  0
    7.8279   -0.1176    2.8641 H   0  0  0  0  0  0  0  0  0  0  0  0
    7.8488    1.5539    2.1786 H   0  0  0  0  0  0  0  0  0  0  0  0
  1  2  1  0  0  0  0
  1 16  1  0  0  0  0
  1 17  1  0  0  0  0
  1 18  1  0  0  0  0
  2  3  2  0  0  0  0
  2  7  1  0  0  0  0
  3  4  1  0  0  0  0
  3 19  1  0  0  0  0
  4  5  2  0  0  0  0
  4 20  1  0  0  0  0
  5  6  1  0  0  0  0
  5  8  1  0  0  0  0
  6  7  2  0  0  0  0
  6 21  1  0  0  0  0
  7 22  1  0  0  0  0
  8  9  2  0  0  0  0
  8 13  1  0  0  0  0
  9 10  1  0  0  0  0
  9 23  1  0  0  0  0
 10 11  2  0  0  0  0
 10 24  1  0  0  0  0
 11 12  1  0  0  0  0
 11 14  1  0  0  0  0
 12 13  2  0  0  0  0
 12 25  1  0  0  0  0
 13 26  1  0  0  0  0
 14 15  1  0  0  0  0
 15 27  1  0  0  0  0
 15 28  1  0  0  0  0
 15 29  1  0  0  0  0
M  CHG  1   2   1
M  END
