
 OpenBabel10072620073D

 46 48  0  0  0  0  0  0  0  0999 V2000
    2.5625   -1.7909   -0.2341 C   0  0  0  0  0  0  0  0  0  0  0  0
    1.3370   -2.2847   -0.1016 C   0  0  0  0  0  0  0  0  0  0  0  0
    0.7944   -2.4844    1.1449 C   0  0  0  0  0  0  0  0  0  0  0  0
    1.4626   -2.0967    2.2730 C   0  0  0  0  0  0  0  0  0  0  0  0
    2.7047   -1.6802    2.1061 C   0  0  0  0  0  0  0  0  0  0  0  0
    3.2695   -1.3196    0.8599 C   0  0  0  0  0  0  0  0  0  0  0  0
    3.5599   -1.5844    3.2978 N   0  3  0  0  0  0  0  0  0  0  0  0
    3.1130   -1.8865    4.3990 O   0  0  0  0  0  0  0  0  0  0  0  0
    4.8562   -1.1576    3.1782 O   0  5  0  0  0  0  0  0  0  0  0  0
   -0.5683   -3.1458    1.2714 C   0  0  0  0  0  0  0  0  0  0  0  0
   -1.0786   -3.3349    2.4199 O   0  0  0  0  0  0  0  0  0  0  0  0
   -1.2711   -3.5524    0.1065 O   0  0  0  0  0  0  0  0  0  0  0  0
   -2.1502   -4.6662    0.1602 C   0  0  0  0  0  0  0  0  0  0  0  0
   -3.2074   -4.7104   -0.6421 C   0  0  0  0  0  0  0  0  0  0  0  0
   -3.9826   -5.8424   -0.7159 C   0  0  0  0  0  0  0  0  0  0  0  0
   -3.7413   -6.9142    0.0981 C   0  0  0  0  0  0  0  0  0  0  0  0
   -2.6408   -6.8627    0.8263 C   0  0  0  0  0  0  0  0  0  0  0  0
   -1.8847   -5.6889    1.0558 C   0  0  0  0  0  0  0  0  0  0  0  0
   -4.6886   -8.1012    0.1613 C   0  0  0  0  0  0  0  0  0  0  0  0
   -4.5134   -9.1568   -0.6787 C   0  0  0  0  0  0  0  0  0  0  0  0
   -3.3702   -9.1493   -1.6805 C   0  0  0  0  0  0  0  0  0  0  0  0
   -2.4219   -9.1431   -2.5116 N   0  0  0  0  0  0  0  0  0  0  0  0
   -5.4607  -10.3438   -0.6155 C   0  0  0  0  0  0  0  0  0  0  0  0
   -6.4165  -10.3501    0.2221 O   0  0  0  0  0  0  0  0  0  0  0  0
   -5.2714  -11.4845   -1.5232 N   0  0  0  0  0  0  0  0  0  0  0  0
   -6.1875  -12.6325   -1.4620 C   0  0  0  0  0  0  0  0  0  0  0  0
   -6.9147  -12.8372   -0.3700 C   0  0  0  0  0  0  0  0  0  0  0  0
   -7.8854  -13.8094   -0.3482 C   0  0  0  0  0  0  0  0  0  0  0  0
   -8.0648  -14.6480   -1.4132 C   0  0  0  0  0  0  0  0  0  0  0  0
   -7.3768  -14.3666   -2.5047 C   0  0  0  0  0  0  0  0  0  0  0  0
   -6.2726  -13.4831   -2.5519 C   0  0  0  0  0  0  0  0  0  0  0  0
   -9.1403  -14.0151    1.3854 I   0  0  0  0  0  0  0  0  0  0  0  0
    2.9965   -1.7577   -1.1698 H   0  0  0  0  0  0  0  0  0  0  0  0
    0.7871   -2.5206   -0.9424 H   0  0  0  0  0  0  0  0  0  0  0  0
    1.0202   -2.1280    3.2048 H   0  0  0  0  0  0  0  0  0  0  0  0
    4.1300   -0.7565    0.7738 H   0  0  0  0  0  0  0  0  0  0  0  0
   -3.4489   -3.8870   -1.2155 H   0  0  0  0  0  0  0  0  0  0  0  0
   -4.7583   -5.8843   -1.3953 H   0  0  0  0  0  0  0  0  0  0  0  0
   -2.3093   -7.7394    1.2580 H   0  0  0  0  0  0  0  0  0  0  0  0
   -1.1977   -5.6027    1.8210 H   0  0  0  0  0  0  0  0  0  0  0  0
   -5.4648   -8.1063    0.8414 H   0  0  0  0  0  0  0  0  0  0  0  0
   -4.5310  -11.4796   -2.1720 H   0  0  0  0  0  0  0  0  0  0  0  0
   -6.7494  -12.2609    0.4699 H   0  0  0  0  0  0  0  0  0  0  0  0
   -8.7035  -15.4572   -1.3665 H   0  0  0  0  0  0  0  0  0  0  0  0
   -7.6646  -14.8227   -3.3846 H   0  0  0  0  0  0  0  0  0  0  0  0
   -5.5922  -13.4735   -3.3278 H   0  0  0  0  0  0  0  0  0  0  0  0
  1  2  2  0  0  0  0
  1  6  1  0  0  0  0
  1 33  1  0  0  0  0
  2  3  1  0  0  0  0
  2 34  1  0  0  0  0
  3  4  2  0  0  0  0
  3 10  1  0  0  0  0
  4  5  1  0  0  0  0
  4 35  1  0  0  0  0
  5  6  2  0  0  0  0
  5  7  1  0  0  0  0
  6 36  1  0  0  0  0
  7  8  2  0  0  0  0
  7  9  1  0  0  0  0
 10 11  2  0  0  0  0
 10 12  1  0  0  0  0
 12 13  1  0  0  0  0
 13 14  2  0  0  0  0
 13 18  1  0  0  0  0
 14 15  1  0  0  0  0
 14 37  1  0  0  0  0
 15 16  2  0  0  0  0
 15 38  1  0  0  0  0
 16 17  1  0  0  0  0
 16 19  1  0  0  0  0
 17 18  2  0  0  0  0
 17 39  1  0  0  0  0
 18 40  1  0  0  0  0
 19 20  2  0  0  0  0
 19 41  1  0  0  0  0
 20 21  1  0  0  0  0
 20 23  1  0  0  0  0
 21 22  3  0  0  0  0
 23 24  2  0  0  0  0
 23 25  1  0  0  0  0
 25 26  1  0  0  0  0
 25 42  1  0  0  0  0
 26 27  2  0  0  0  0
 26 31  1  0  0  0  0
 27 28  1  0  0  0  0
 27 43  1  0  0  0  0
 28 29  2  0  0  0  0
 28 32  1  0  0  0  0
 29 30  1  0  0  0  0
 29 44  1  0  0  0  0
 30 31  2  0  0  0  0
 30 45  1  0  0  0  0
 31 46  1  0  0  0  0
M  CHG  2   7   1   9  -1
M  END
