
 OpenBabel10072620233D

 33 35  0  0  0  0  0  0  0  0999 V2000
    1.6622    0.9469    0.0074 C   0  0  0  0  0  0  0  0  0  0  0  0
    1.7823   -0.4799    0.5163 C   0  0  0  0  0  0  0  0  0  0  0  0
    0.8176   -1.3259   -0.1215 O   0  0  0  0  0  0  0  0  0  0  0  0
   -0.4251   -0.7464   -0.1267 C   0  0  0  0  0  0  0  0  0  0  0  0
   -0.6329    0.6186    0.1054 C   0  0  0  0  0  0  0  0  0  0  0  0
    0.3870    1.5023    0.3508 O   0  0  0  0  0  0  0  0  0  0  0  0
   -1.9271    1.1396    0.1206 C   0  0  0  0  0  0  0  0  0  0  0  0
   -3.0190    0.3025   -0.1120 C   0  0  0  0  0  0  0  0  0  0  0  0
   -2.8010   -1.0587   -0.3485 C   0  0  0  0  0  0  0  0  0  0  0  0
   -1.5070   -1.5871   -0.3772 C   0  0  0  0  0  0  0  0  0  0  0  0
   -4.1809   -2.1449   -0.6100 S   0  0  0  0  0  0  0  0  0  0  0  0
   -5.3511   -1.3318   -0.8506 O   0  0  0  0  0  0  0  0  0  0  0  0
   -3.7600   -3.1750   -1.5310 O   0  0  0  0  0  0  0  0  0  0  0  0
   -4.3522   -2.8727    0.8888 N   0  0  0  0  0  0  0  0  0  0  0  0
   -4.6967   -2.0255    2.0267 C   0  0  0  0  0  0  0  0  0  0  0  0
   -4.9917   -2.9223    3.1897 C   0  0  0  0  0  0  0  0  0  0  0  0
   -5.9997   -3.8596    3.3142 C   0  0  0  0  0  0  0  0  0  0  0  0
   -5.9747   -4.5208    4.5757 C   0  0  0  0  0  0  0  0  0  0  0  0
   -4.9498   -4.0657    5.3748 C   0  0  0  0  0  0  0  0  0  0  0  0
   -4.0203   -2.8566    4.6005 S   0  0  0  0  0  0  0  0  0  0  0  0
    1.7816    0.9978   -1.0816 H   0  0  0  0  0  0  0  0  0  0  0  0
    2.4334    1.5766    0.4627 H   0  0  0  0  0  0  0  0  0  0  0  0
    1.6282   -0.5341    1.6014 H   0  0  0  0  0  0  0  0  0  0  0  0
    2.7757   -0.8815    0.2934 H   0  0  0  0  0  0  0  0  0  0  0  0
   -2.0865    2.1983    0.3057 H   0  0  0  0  0  0  0  0  0  0  0  0
   -4.0243    0.7185   -0.1063 H   0  0  0  0  0  0  0  0  0  0  0  0
   -1.3398   -2.6428   -0.5760 H   0  0  0  0  0  0  0  0  0  0  0  0
   -3.6989   -3.6370    1.0536 H   0  0  0  0  0  0  0  0  0  0  0  0
   -5.5856   -1.4263    1.8030 H   0  0  0  0  0  0  0  0  0  0  0  0
   -3.8682   -1.3493    2.2623 H   0  0  0  0  0  0  0  0  0  0  0  0
   -6.7199   -4.0609    2.5285 H   0  0  0  0  0  0  0  0  0  0  0  0
   -6.6754   -5.2900    4.8790 H   0  0  0  0  0  0  0  0  0  0  0  0
   -4.7011   -4.3879    6.3774 H   0  0  0  0  0  0  0  0  0  0  0  0
  1  2  1  0  0  0  0
  1  6  1  0  0  0  0
  1 21  1  0  0  0  0
  1 22  1  0  0  0  0
  2  3  1  0  0  0  0
  2 23  1  0  0  0  0
  2 24  1  0  0  0  0
  3  4  1  0  0  0  0
  4  5  2  0  0  0  0
  4 10  1  0  0  0  0
  5  6  1  0  0  0  0
  5  7  1  0  0  0  0
  7  8  2  0  0  0  0
  7 25  1  0  0  0  0
  8  9  1  0  0  0  0
  8 26  1  0  0  0  0
  9 10  2  0  0  0  0
  9 11  1  0  0  0  0
 10 27  1  0  0  0  0
 11 12  2  0  0  0  0
 11 13  2  0  0  0  0
 11 14  1  0  0  0  0
 14 15  1  0  0  0  0
 14 28  1  0  0  0  0
 15 16  1  0  0  0  0
 15 29  1  0  0  0  0
 15 30  1  0  0  0  0
 16 17  2  0  0  0  0
 16 20  1  0  0  0  0
 17 18  1  0  0  0  0
 17 31  1  0  0  0  0
 18 19  2  0  0  0  0
 18 32  1  0  0  0  0
 19 20  1  0  0  0  0
 19 33  1  0  0  0  0
M  END
