
 OpenBabel10072619443D

 34 35  0  0  1  0  0  0  0  0999 V2000
    3.7140    3.0611    3.0384 C   0  0  0  0  0  0  0  0  0  0  0  0
    4.1116    2.5000    4.3169 N   0  0  0  0  0  0  0  0  0  0  0  0
    3.3216    1.7114    4.9571 C   0  0  0  0  0  0  0  0  0  0  0  0
    2.0695    1.3333    4.5395 N   0  0  0  0  0  0  0  0  0  0  0  0
    1.5288   -0.0152    4.7137 C   0  0  0  0  0  0  0  0  0  0  0  0
    0.3788   -0.2787    3.7194 C   0  0  1  0  0  0  0  0  0  0  0  0
   -0.2515   -1.6484    3.9034 C   0  0  0  0  0  0  0  0  0  0  0  0
   -1.3098   -1.3845    4.9485 C   0  0  0  0  0  0  0  0  0  0  0  0
   -1.7734    0.0270    4.6192 C   0  0  1  0  0  0  0  0  0  0  0  0
   -0.6798    0.6775    3.9380 O   0  0  0  0  0  0  0  0  0  0  0  0
   -2.9417    0.0790    3.7019 C   0  0  0  0  0  0  0  0  0  0  0  0
   -4.1718   -0.5451    3.7193 C   0  0  0  0  0  0  0  0  0  0  0  0
   -4.9391   -0.1510    2.6540 N   0  0  0  0  0  0  0  0  0  0  0  0
   -4.2044    0.7171    1.9989 C   0  0  0  0  0  0  0  0  0  0  0  0
   -2.9921    0.8941    2.5963 N   0  0  0  0  0  0  0  0  0  0  0  0
    3.6503    1.1617    6.1665 N   0  0  0  0  0  0  0  0  0  0  0  0
    4.8231    1.6757    6.8375 C   0  0  0  0  0  0  0  0  0  0  0  0
    5.7252    2.0360    7.4696 N   0  0  0  0  0  0  0  0  0  0  0  0
    4.5345    3.6688    2.6437 H   0  0  0  0  0  0  0  0  0  0  0  0
    2.8424    3.7158    3.1410 H   0  0  0  0  0  0  0  0  0  0  0  0
    3.5063    2.2778    2.3021 H   0  0  0  0  0  0  0  0  0  0  0  0
    1.7669    1.7640    3.6722 H   0  0  0  0  0  0  0  0  0  0  0  0
    1.1688   -0.1064    5.7439 H   0  0  0  0  0  0  0  0  0  0  0  0
    2.3190   -0.7584    4.5542 H   0  0  0  0  0  0  0  0  0  0  0  0
    0.7455   -0.1519    2.6944 H   0  0  0  0  0  0  0  0  0  0  0  0
    0.4602   -2.4275    4.1904 H   0  0  0  0  0  0  0  0  0  0  0  0
   -0.7347   -1.9610    2.9696 H   0  0  0  0  0  0  0  0  0  0  0  0
   -0.8439   -1.3913    5.9417 H   0  0  0  0  0  0  0  0  0  0  0  0
   -2.1012   -2.1397    4.9566 H   0  0  0  0  0  0  0  0  0  0  0  0
   -2.0020    0.5921    5.5296 H   0  0  0  0  0  0  0  0  0  0  0  0
   -4.5493   -1.2570    4.4423 H   0  0  0  0  0  0  0  0  0  0  0  0
   -4.4952    1.2451    1.1005 H   0  0  0  0  0  0  0  0  0  0  0  0
   -2.2504    1.5124    2.2957 H   0  0  0  0  0  0  0  0  0  0  0  0
    2.8517    1.0820    6.7765 H   0  0  0  0  0  0  0  0  0  0  0  0
  1  2  1  0  0  0  0
  1 19  1  0  0  0  0
  1 20  1  0  0  0  0
  1 21  1  0  0  0  0
  2  3  2  3  0  0  0
  3  4  1  0  0  0  0
  3 16  1  0  0  0  0
  4  5  1  0  0  0  0
  4 22  1  0  0  0  0
  5 23  1  0  0  0  0
  5 24  1  0  0  0  0
  6  7  1  0  0  0  0
  6 10  1  0  0  0  0
  6  5  1  0  0  0  0
  6 25  1  6  0  0  0
  7  8  1  0  0  0  0
  7 26  1  0  0  0  0
  7 27  1  0  0  0  0
  8  9  1  0  0  0  0
  8 28  1  0  0  0  0
  8 29  1  0  0  0  0
  9 10  1  0  0  0  0
  9 11  1  0  0  0  0
  9 30  1  1  0  0  0
 11 12  2  0  0  0  0
 11 15  1  0  0  0  0
 12 13  1  0  0  0  0
 12 31  1  0  0  0  0
 13 14  2  0  0  0  0
 14 15  1  0  0  0  0
 14 32  1  0  0  0  0
 15 33  1  0  0  0  0
 16 17  1  0  0  0  0
 16 34  1  0  0  0  0
 17 18  3  0  0  0  0
M  END
