
 OpenBabel10072620203D

 49 51  0  0  0  0  0  0  0  0999 V2000
    1.1709   -0.9090    0.8214 C   0  0  0  0  0  0  0  0  0  0  0  0
    2.6577   -1.0826    0.5678 C   0  0  0  0  0  0  0  0  0  0  0  0
    2.8442   -1.1964   -0.8403 O   0  0  0  0  0  0  0  0  0  0  0  0
    4.1659   -1.1504   -1.2226 C   0  0  0  0  0  0  0  0  0  0  0  0
    5.1189   -1.3999   -0.3332 N   0  0  0  0  0  0  0  0  0  0  0  0
    6.3572   -1.3085   -0.8134 C   0  0  0  0  0  0  0  0  0  0  0  0
    6.6601   -0.9979   -2.0783 N   0  0  0  0  0  0  0  0  0  0  0  0
    5.6170   -0.8074   -2.8814 C   0  0  0  0  0  0  0  0  0  0  0  0
    4.3567   -0.8654   -2.5007 N   0  0  0  0  0  0  0  0  0  0  0  0
    5.9597   -0.5127   -4.1939 N   0  0  0  0  0  0  0  0  0  0  0  0
    5.0843   -0.3363   -5.2205 C   0  0  0  0  0  0  0  0  0  0  0  0
    3.8715   -0.4232   -5.1671 O   0  0  0  0  0  0  0  0  0  0  0  0
    5.7422   -0.0179   -6.4054 N   0  0  0  0  0  0  0  0  0  0  0  0
    5.0039    0.1781   -7.8828 S   0  0  0  0  0  0  0  0  0  0  0  0
    6.0675    0.6185   -8.7661 O   0  0  0  0  0  0  0  0  0  0  0  0
    4.2327   -1.0018   -8.1994 O   0  0  0  0  0  0  0  0  0  0  0  0
    3.9144    1.5582   -7.6491 C   0  0  0  0  0  0  0  0  0  0  0  0
    4.3966    2.8586   -7.8235 C   0  0  0  0  0  0  0  0  0  0  0  0
    3.5336    3.9473   -7.6637 C   0  0  0  0  0  0  0  0  0  0  0  0
    2.1885    3.7371   -7.3497 C   0  0  0  0  0  0  0  0  0  0  0  0
    1.7107    2.4304   -7.2104 C   0  0  0  0  0  0  0  0  0  0  0  0
    2.5659    1.3385   -7.3661 C   0  0  0  0  0  0  0  0  0  0  0  0
    1.2474    4.7110   -7.1598 O   0  0  0  0  0  0  0  0  0  0  0  0
    1.6800    6.0576   -7.3037 C   0  0  0  0  0  0  0  0  0  0  0  0
    7.4738   -1.5607    0.1202 C   0  0  0  0  0  0  0  0  0  0  0  0
    7.2809   -2.2787    1.3171 C   0  0  0  0  0  0  0  0  0  0  0  0
    8.3351   -2.5170    2.2049 C   0  0  0  0  0  0  0  0  0  0  0  0
    9.6093   -2.0378    1.9184 C   0  0  0  0  0  0  0  0  0  0  0  0
    9.8303   -1.3257    0.7436 C   0  0  0  0  0  0  0  0  0  0  0  0
    8.7757   -1.0940   -0.1459 C   0  0  0  0  0  0  0  0  0  0  0  0
    0.9628   -0.8450    1.8924 H   0  0  0  0  0  0  0  0  0  0  0  0
    0.6068   -1.7471    0.3993 H   0  0  0  0  0  0  0  0  0  0  0  0
    0.8014    0.0004    0.3350 H   0  0  0  0  0  0  0  0  0  0  0  0
    3.0088   -1.9917    1.0701 H   0  0  0  0  0  0  0  0  0  0  0  0
    3.1899   -0.2085    0.9633 H   0  0  0  0  0  0  0  0  0  0  0  0
    6.9481   -0.4903   -4.3578 H   0  0  0  0  0  0  0  0  0  0  0  0
    6.7378    0.1504   -6.4433 H   0  0  0  0  0  0  0  0  0  0  0  0
    5.4356    3.0362   -8.0907 H   0  0  0  0  0  0  0  0  0  0  0  0
    3.9398    4.9440   -7.8016 H   0  0  0  0  0  0  0  0  0  0  0  0
    0.6618    2.2611   -6.9767 H   0  0  0  0  0  0  0  0  0  0  0  0
    2.1759    0.3290   -7.2529 H   0  0  0  0  0  0  0  0  0  0  0  0
    0.8154    6.7094   -7.1433 H   0  0  0  0  0  0  0  0  0  0  0  0
    2.0544    6.2428   -8.3159 H   0  0  0  0  0  0  0  0  0  0  0  0
    2.4333    6.3094   -6.5498 H   0  0  0  0  0  0  0  0  0  0  0  0
    6.2951   -2.6698    1.5656 H   0  0  0  0  0  0  0  0  0  0  0  0
    8.1579   -3.0798    3.1178 H   0  0  0  0  0  0  0  0  0  0  0  0
   10.4286   -2.2198    2.6094 H   0  0  0  0  0  0  0  0  0  0  0  0
   10.8242   -0.9495    0.5158 H   0  0  0  0  0  0  0  0  0  0  0  0
    8.9791   -0.5317   -1.0556 H   0  0  0  0  0  0  0  0  0  0  0  0
  1  2  1  0  0  0  0
  1 31  1  0  0  0  0
  1 32  1  0  0  0  0
  1 33  1  0  0  0  0
  2  3  1  0  0  0  0
  2 34  1  0  0  0  0
  2 35  1  0  0  0  0
  3  4  1  0  0  0  0
  4  5  2  0  0  0  0
  4  9  1  0  0  0  0
  5  6  1  0  0  0  0
  6  7  2  0  0  0  0
  6 25  1  0  0  0  0
  7  8  1  0  0  0  0
  8  9  2  0  0  0  0
  8 10  1  0  0  0  0
 10 11  1  0  0  0  0
 10 36  1  0  0  0  0
 11 12  2  0  0  0  0
 11 13  1  0  0  0  0
 13 14  1  0  0  0  0
 13 37  1  0  0  0  0
 14 15  2  0  0  0  0
 14 16  2  0  0  0  0
 14 17  1  0  0  0  0
 17 18  2  0  0  0  0
 17 22  1  0  0  0  0
 18 19  1  0  0  0  0
 18 38  1  0  0  0  0
 19 20  2  0  0  0  0
 19 39  1  0  0  0  0
 20 21  1  0  0  0  0
 20 23  1  0  0  0  0
 21 22  2  0  0  0  0
 21 40  1  0  0  0  0
 22 41  1  0  0  0  0
 23 24  1  0  0  0  0
 24 42  1  0  0  0  0
 24 43  1  0  0  0  0
 24 44  1  0  0  0  0
 25 26  2  0  0  0  0
 25 30  1  0  0  0  0
 26 27  1  0  0  0  0
 26 45  1  0  0  0  0
 27 28  2  0  0  0  0
 27 46  1  0  0  0  0
 28 29  1  0  0  0  0
 28 47  1  0  0  0  0
 29 30  2  0  0  0  0
 29 48  1  0  0  0  0
 30 49  1  0  0  0  0
M  END
