
 OpenBabel10072620183D

 42 43  0  0  0  0  0  0  0  0999 V2000
    1.0193    0.6143    1.1033 C   0  0  0  0  0  0  0  0  0  0  0  0
    2.1761    0.4147    0.3022 O   0  0  0  0  0  0  0  0  0  0  0  0
    3.0595    1.4540    0.2106 C   0  0  0  0  0  0  0  0  0  0  0  0
    2.9409    2.6974    0.8323 C   0  0  0  0  0  0  0  0  0  0  0  0
    3.9249    3.6804    0.6443 C   0  0  0  0  0  0  0  0  0  0  0  0
    5.0331    3.4253   -0.1758 C   0  0  0  0  0  0  0  0  0  0  0  0
    5.1610    2.1675   -0.7756 C   0  0  0  0  0  0  0  0  0  0  0  0
    4.1771    1.1945   -0.5854 C   0  0  0  0  0  0  0  0  0  0  0  0
    6.1131    4.4252   -0.4281 C   0  0  0  0  0  0  0  0  0  0  0  0
    7.2585    4.0223   -0.5710 O   0  0  0  0  0  0  0  0  0  0  0  0
    5.7295    5.7659   -0.3879 N   0  0  0  0  0  0  0  0  0  0  0  0
    6.3292    6.8779   -1.0096 C   0  0  0  0  0  0  0  0  0  0  0  0
    7.5709    6.8071   -2.1250 S   0  0  0  0  0  0  0  0  0  0  0  0
    5.7336    8.0375   -0.5002 N   0  0  0  0  0  0  0  0  0  0  0  0
    5.7322    9.3596   -0.9994 C   0  0  0  0  0  0  0  0  0  0  0  0
    5.8248    9.6776   -2.3600 C   0  0  0  0  0  0  0  0  0  0  0  0
    5.7888   11.0118   -2.7968 C   0  0  0  0  0  0  0  0  0  0  0  0
    5.6464   12.0383   -1.8479 C   0  0  0  0  0  0  0  0  0  0  0  0
    5.4933   11.7178   -0.4968 C   0  0  0  0  0  0  0  0  0  0  0  0
    5.5379   10.3901   -0.0762 C   0  0  0  0  0  0  0  0  0  0  0  0
    5.5747   13.3803   -2.1194 O   0  0  0  0  0  0  0  0  0  0  0  0
    6.5596   13.8531   -3.0356 C   0  0  0  0  0  0  0  0  0  0  0  0
    5.8293   11.3846   -4.1152 O   0  0  0  0  0  0  0  0  0  0  0  0
    6.1660   10.3936   -5.0781 C   0  0  0  0  0  0  0  0  0  0  0  0
    0.4264   -0.3051    1.0694 H   0  0  0  0  0  0  0  0  0  0  0  0
    0.3999    1.4255    0.7066 H   0  0  0  0  0  0  0  0  0  0  0  0
    1.2920    0.7968    2.1477 H   0  0  0  0  0  0  0  0  0  0  0  0
    2.1005    2.9296    1.4809 H   0  0  0  0  0  0  0  0  0  0  0  0
    3.8154    4.6211    1.1753 H   0  0  0  0  0  0  0  0  0  0  0  0
    6.0268    1.9390   -1.3958 H   0  0  0  0  0  0  0  0  0  0  0  0
    4.2843    0.2212   -1.0599 H   0  0  0  0  0  0  0  0  0  0  0  0
    4.7569    5.9394   -0.1940 H   0  0  0  0  0  0  0  0  0  0  0  0
    5.5014    7.9625    0.4834 H   0  0  0  0  0  0  0  0  0  0  0  0
    5.8768    8.8757   -3.0852 H   0  0  0  0  0  0  0  0  0  0  0  0
    5.3535   12.5145    0.2292 H   0  0  0  0  0  0  0  0  0  0  0  0
    5.4418   10.1825    0.9870 H   0  0  0  0  0  0  0  0  0  0  0  0
    6.7627   14.9006   -2.7907 H   0  0  0  0  0  0  0  0  0  0  0  0
    6.1716   13.8272   -4.0578 H   0  0  0  0  0  0  0  0  0  0  0  0
    7.5063   13.3066   -2.9566 H   0  0  0  0  0  0  0  0  0  0  0  0
    6.2546   10.8922   -6.0488 H   0  0  0  0  0  0  0  0  0  0  0  0
    5.3736    9.6434   -5.1635 H   0  0  0  0  0  0  0  0  0  0  0  0
    7.1318    9.9301   -4.8523 H   0  0  0  0  0  0  0  0  0  0  0  0
  1  2  1  0  0  0  0
  1 25  1  0  0  0  0
  1 26  1  0  0  0  0
  1 27  1  0  0  0  0
  2  3  1  0  0  0  0
  3  4  2  0  0  0  0
  3  8  1  0  0  0  0
  4  5  1  0  0  0  0
  4 28  1  0  0  0  0
  5  6  2  0  0  0  0
  5 29  1  0  0  0  0
  6  7  1  0  0  0  0
  6  9  1  0  0  0  0
  7  8  2  0  0  0  0
  7 30  1  0  0  0  0
  8 31  1  0  0  0  0
  9 10  2  0  0  0  0
  9 11  1  0  0  0  0
 11 12  1  0  0  0  0
 11 32  1  0  0  0  0
 12 13  2  0  0  0  0
 12 14  1  0  0  0  0
 14 15  1  0  0  0  0
 14 33  1  0  0  0  0
 15 16  2  0  0  0  0
 15 20  1  0  0  0  0
 16 17  1  0  0  0  0
 16 34  1  0  0  0  0
 17 18  2  0  0  0  0
 17 23  1  0  0  0  0
 18 19  1  0  0  0  0
 18 21  1  0  0  0  0
 19 20  2  0  0  0  0
 19 35  1  0  0  0  0
 20 36  1  0  0  0  0
 21 22  1  0  0  0  0
 22 37  1  0  0  0  0
 22 38  1  0  0  0  0
 22 39  1  0  0  0  0
 23 24  1  0  0  0  0
 24 40  1  0  0  0  0
 24 41  1  0  0  0  0
 24 42  1  0  0  0  0
M  END
