
 OpenBabel10072620013D

 35 36  0  0  0  0  0  0  0  0999 V2000
    0.7909   -1.6566    0.0927 C   0  0  0  0  0  0  0  0  0  0  0  0
   -0.4476   -1.1396   -0.2872 C   0  0  0  0  0  0  0  0  0  0  0  0
   -0.7360    0.2072   -0.0681 C   0  0  0  0  0  0  0  0  0  0  0  0
    0.2014    1.0480    0.5292 C   0  0  0  0  0  0  0  0  0  0  0  0
    1.4328    0.5234    0.9092 C   0  0  0  0  0  0  0  0  0  0  0  0
    1.7353   -0.8205    0.6902 C   0  0  0  0  0  0  0  0  0  0  0  0
    2.3491    1.2935    1.5132 F   0  0  0  0  0  0  0  0  0  0  0  0
   -0.1366    2.4613    0.7673 C   0  0  0  0  0  0  0  0  0  0  0  0
   -1.2382    2.7409    1.2340 O   0  0  0  0  0  0  0  0  0  0  0  0
    0.8773    3.5259    0.4109 C   0  0  0  0  0  0  0  0  0  0  0  0
    0.2743    4.4764   -0.6145 C   0  0  0  0  0  0  0  0  0  0  0  0
    1.0731    5.6791   -0.7997 N   0  0  0  0  0  0  0  0  0  0  0  0
    2.1495    5.8770   -1.6063 C   0  0  0  0  0  0  0  0  0  0  0  0
    2.9210    4.7016   -2.5122 S   0  0  0  0  0  0  0  0  0  0  0  0
    2.6386    7.1486   -1.6891 N   0  0  0  0  0  0  0  0  0  0  0  0
    2.1514    8.3277   -1.1106 C   0  0  0  0  0  0  0  0  0  0  0  0
    1.0635    8.2949   -0.3082 N   0  0  0  0  0  0  0  0  0  0  0  0
    0.6152    9.4796    0.1801 C   0  0  0  0  0  0  0  0  0  0  0  0
    1.2116   10.7007   -0.0886 C   0  0  0  0  0  0  0  0  0  0  0  0
    2.3370   10.7160   -0.9003 C   0  0  0  0  0  0  0  0  0  0  0  0
    2.8152    9.5123   -1.4196 C   0  0  0  0  0  0  0  0  0  0  0  0
    0.5712   12.1593    0.5466 Cl  0  0  0  0  0  0  0  0  0  0  0  0
   -1.9212    0.6764   -0.4818 F   0  0  0  0  0  0  0  0  0  0  0  0
    1.0206   -2.7056   -0.0806 H   0  0  0  0  0  0  0  0  0  0  0  0
   -1.1936   -1.7748   -0.7579 H   0  0  0  0  0  0  0  0  0  0  0  0
    2.7047   -1.2081    0.9920 H   0  0  0  0  0  0  0  0  0  0  0  0
    1.7915    3.0819    0.0086 H   0  0  0  0  0  0  0  0  0  0  0  0
    1.1514    4.0498    1.3337 H   0  0  0  0  0  0  0  0  0  0  0  0
   -0.7211    4.8129   -0.3040 H   0  0  0  0  0  0  0  0  0  0  0  0
    0.1575    3.9708   -1.5798 H   0  0  0  0  0  0  0  0  0  0  0  0
    0.7587    6.5158   -0.3064 H   0  0  0  0  0  0  0  0  0  0  0  0
    3.4330    7.2364   -2.3082 H   0  0  0  0  0  0  0  0  0  0  0  0
   -0.2721    9.4121    0.8036 H   0  0  0  0  0  0  0  0  0  0  0  0
    2.8387   11.6487   -1.1426 H   0  0  0  0  0  0  0  0  0  0  0  0
    3.6868    9.5166   -2.0661 H   0  0  0  0  0  0  0  0  0  0  0  0
  1  2  2  0  0  0  0
  1  6  1  0  0  0  0
  1 24  1  0  0  0  0
  2  3  1  0  0  0  0
  2 25  1  0  0  0  0
  3  4  2  0  0  0  0
  3 23  1  0  0  0  0
  4  5  1  0  0  0  0
  4  8  1  0  0  0  0
  5  6  2  0  0  0  0
  5  7  1  0  0  0  0
  6 26  1  0  0  0  0
  8  9  2  0  0  0  0
  8 10  1  0  0  0  0
 10 11  1  0  0  0  0
 10 27  1  0  0  0  0
 10 28  1  0  0  0  0
 11 12  1  0  0  0  0
 11 29  1  0  0  0  0
 11 30  1  0  0  0  0
 12 13  1  0  0  0  0
 12 31  1  0  0  0  0
 13 14  2  0  0  0  0
 13 15  1  0  0  0  0
 15 16  1  0  0  0  0
 15 32  1  0  0  0  0
 16 17  2  0  0  0  0
 16 21  1  0  0  0  0
 17 18  1  0  0  0  0
 18 19  2  0  0  0  0
 18 33  1  0  0  0  0
 19 20  1  0  0  0  0
 19 22  1  0  0  0  0
 20 21  2  0  0  0  0
 20 34  1  0  0  0  0
 21 35  1  0  0  0  0
M  END
