
 OpenBabel10072620113D

 51 53  0  0  0  0  0  0  0  0999 V2000
   -2.7679    2.3217   -6.6336 C   0  0  0  0  0  0  0  0  0  0  0  0
   -2.9554    1.8727   -5.2134 C   0  0  0  0  0  0  0  0  0  0  0  0
   -1.9647    2.1194   -4.2538 C   0  0  0  0  0  0  0  0  0  0  0  0
   -2.1264    1.6775   -2.9411 C   0  0  0  0  0  0  0  0  0  0  0  0
   -3.2929    0.9986   -2.5816 C   0  0  0  0  0  0  0  0  0  0  0  0
   -4.2980    0.7605   -3.5223 C   0  0  0  0  0  0  0  0  0  0  0  0
   -4.1301    1.2065   -4.8347 C   0  0  0  0  0  0  0  0  0  0  0  0
   -3.4299    0.3225   -0.9462 S   0  0  0  0  0  0  0  0  0  0  0  0
   -4.4675   -0.6850   -0.9454 O   0  0  0  0  0  0  0  0  0  0  0  0
   -2.0888    0.0083   -0.4972 O   0  0  0  0  0  0  0  0  0  0  0  0
   -3.9114    1.6606   -0.0277 N   0  0  0  0  0  0  0  0  0  0  0  0
   -5.3052    1.8476    0.1763 C   0  0  0  0  0  0  0  0  0  0  0  0
   -5.9318    1.2401    1.2614 C   0  0  0  0  0  0  0  0  0  0  0  0
   -7.3099    1.3862    1.4469 C   0  0  0  0  0  0  0  0  0  0  0  0
   -8.0695    2.1424    0.5503 C   0  0  0  0  0  0  0  0  0  0  0  0
   -7.4311    2.7279   -0.5538 C   0  0  0  0  0  0  0  0  0  0  0  0
   -6.0519    2.5779   -0.7421 C   0  0  0  0  0  0  0  0  0  0  0  0
   -9.4661    2.3079    0.6664 N   0  0  0  0  0  0  0  0  0  0  0  0
  -10.2557    1.9791    1.7623 C   0  0  0  0  0  0  0  0  0  0  0  0
   -9.8312    1.6926    2.8731 O   0  0  0  0  0  0  0  0  0  0  0  0
  -11.5972    2.0082    1.4071 N   0  0  0  0  0  0  0  0  0  0  0  0
  -12.7065    1.7731    2.2457 C   0  0  0  0  0  0  0  0  0  0  0  0
  -12.6353    1.7237    3.6398 C   0  0  0  0  0  0  0  0  0  0  0  0
  -13.7789    1.4658    4.4090 C   0  0  0  0  0  0  0  0  0  0  0  0
  -15.0108    1.2498    3.7880 C   0  0  0  0  0  0  0  0  0  0  0  0
  -15.0920    1.3263    2.3933 C   0  0  0  0  0  0  0  0  0  0  0  0
  -13.9486    1.5861    1.6289 C   0  0  0  0  0  0  0  0  0  0  0  0
  -16.2434    0.9253    4.5607 C   0  0  0  0  0  0  0  0  0  0  0  0
  -17.3434    1.0129    4.0190 O   0  0  0  0  0  0  0  0  0  0  0  0
  -16.1060    0.4805    5.9924 C   0  0  0  0  0  0  0  0  0  0  0  0
   -1.7381    2.6483   -6.8158 H   0  0  0  0  0  0  0  0  0  0  0  0
   -3.4365    3.1586   -6.8575 H   0  0  0  0  0  0  0  0  0  0  0  0
   -2.9765    1.4953   -7.3216 H   0  0  0  0  0  0  0  0  0  0  0  0
   -1.0482    2.6365   -4.5289 H   0  0  0  0  0  0  0  0  0  0  0  0
   -1.3339    1.8438   -2.2150 H   0  0  0  0  0  0  0  0  0  0  0  0
   -5.1974    0.2133   -3.2484 H   0  0  0  0  0  0  0  0  0  0  0  0
   -4.9099    1.0116   -5.5684 H   0  0  0  0  0  0  0  0  0  0  0  0
   -3.3192    1.7295    0.8005 H   0  0  0  0  0  0  0  0  0  0  0  0
   -5.3683    0.6293    1.9614 H   0  0  0  0  0  0  0  0  0  0  0  0
   -7.7625    0.8718    2.2906 H   0  0  0  0  0  0  0  0  0  0  0  0
   -7.9913    3.3094   -1.2819 H   0  0  0  0  0  0  0  0  0  0  0  0
   -5.5661    3.0457   -1.5937 H   0  0  0  0  0  0  0  0  0  0  0  0
   -9.9134    2.8629   -0.0478 H   0  0  0  0  0  0  0  0  0  0  0  0
  -11.7830    2.0011    0.4159 H   0  0  0  0  0  0  0  0  0  0  0  0
  -11.6989    1.8842    4.1667 H   0  0  0  0  0  0  0  0  0  0  0  0
  -13.6737    1.4444    5.4900 H   0  0  0  0  0  0  0  0  0  0  0  0
  -16.0444    1.1670    1.8903 H   0  0  0  0  0  0  0  0  0  0  0  0
  -14.0468    1.6180    0.5464 H   0  0  0  0  0  0  0  0  0  0  0  0
  -15.3613   -0.3165    6.0662 H   0  0  0  0  0  0  0  0  0  0  0  0
  -17.0616    0.0767    6.3414 H   0  0  0  0  0  0  0  0  0  0  0  0
  -15.8368    1.3261    6.6294 H   0  0  0  0  0  0  0  0  0  0  0  0
  1  2  1  0  0  0  0
  1 31  1  0  0  0  0
  1 32  1  0  0  0  0
  1 33  1  0  0  0  0
  2  3  2  0  0  0  0
  2  7  1  0  0  0  0
  3  4  1  0  0  0  0
  3 34  1  0  0  0  0
  4  5  2  0  0  0  0
  4 35  1  0  0  0  0
  5  6  1  0  0  0  0
  5  8  1  0  0  0  0
  6  7  2  0  0  0  0
  6 36  1  0  0  0  0
  7 37  1  0  0  0  0
  8  9  2  0  0  0  0
  8 10  2  0  0  0  0
  8 11  1  0  0  0  0
 11 12  1  0  0  0  0
 11 38  1  0  0  0  0
 12 13  2  0  0  0  0
 12 17  1  0  0  0  0
 13 14  1  0  0  0  0
 13 39  1  0  0  0  0
 14 15  2  0  0  0  0
 14 40  1  0  0  0  0
 15 16  1  0  0  0  0
 15 18  1  0  0  0  0
 16 17  2  0  0  0  0
 16 41  1  0  0  0  0
 17 42  1  0  0  0  0
 18 19  1  0  0  0  0
 18 43  1  0  0  0  0
 19 20  2  0  0  0  0
 19 21  1  0  0  0  0
 21 22  1  0  0  0  0
 21 44  1  0  0  0  0
 22 23  2  0  0  0  0
 22 27  1  0  0  0  0
 23 24  1  0  0  0  0
 23 45  1  0  0  0  0
 24 25  2  0  0  0  0
 24 46  1  0  0  0  0
 25 26  1  0  0  0  0
 25 28  1  0  0  0  0
 26 27  2  0  0  0  0
 26 47  1  0  0  0  0
 27 48  1  0  0  0  0
 28 29  2  0  0  0  0
 28 30  1  0  0  0  0
 30 49  1  0  0  0  0
 30 50  1  0  0  0  0
 30 51  1  0  0  0  0
M  END
