
 OpenBabel10072619583D

 40 41  0  0  0  0  0  0  0  0999 V2000
    1.7445    0.2416   -0.5269 C   0  0  0  0  0  0  0  0  0  0  0  0
    2.9098   -0.6024   -0.4181 O   0  0  0  0  0  0  0  0  0  0  0  0
    3.2396   -0.8943    0.8831 C   0  0  0  0  0  0  0  0  0  0  0  0
    2.8291   -2.1065    1.4839 C   0  0  0  0  0  0  0  0  0  0  0  0
    3.3086   -2.4446    2.7773 C   0  0  0  0  0  0  0  0  0  0  0  0
    4.1131   -1.5242    3.4855 C   0  0  0  0  0  0  0  0  0  0  0  0
    4.5592   -0.3502    2.8704 C   0  0  0  0  0  0  0  0  0  0  0  0
    4.1423   -0.0728    1.5655 C   0  0  0  0  0  0  0  0  0  0  0  0
    4.7282    1.0635    0.8838 N   0  3  0  0  0  0  0  0  0  0  0  0
    4.0217    2.0680    0.7342 O   0  0  0  0  0  0  0  0  0  0  0  0
    5.9134    0.9478    0.5460 O   0  5  0  0  0  0  0  0  0  0  0  0
    4.5848   -1.7500    5.3160 Br  0  0  0  0  0  0  0  0  0  0  0  0
    2.8602   -3.6163    3.3381 O   0  0  0  0  0  0  0  0  0  0  0  0
    3.8868   -4.5390    3.7295 C   0  0  0  0  0  0  0  0  0  0  0  0
    1.8872   -2.9870    0.7174 C   0  0  0  0  0  0  0  0  0  0  0  0
    1.0373   -2.4910   -0.0218 O   0  0  0  0  0  0  0  0  0  0  0  0
    2.0315   -4.3568    0.8730 N   0  0  0  0  0  0  0  0  0  0  0  0
    1.4263   -5.3736    0.1549 C   0  0  0  0  0  0  0  0  0  0  0  0
    1.6670   -6.5367    0.4558 O   0  0  0  0  0  0  0  0  0  0  0  0
    0.6493   -4.9407   -0.8874 N   0  0  0  0  0  0  0  0  0  0  0  0
   -0.1705   -5.7010   -1.7410 C   0  0  0  0  0  0  0  0  0  0  0  0
   -0.7819   -6.9098   -1.3978 C   0  0  0  0  0  0  0  0  0  0  0  0
   -1.6210   -7.5594   -2.3036 C   0  0  0  0  0  0  0  0  0  0  0  0
   -1.8577   -7.0157   -3.5594 C   0  0  0  0  0  0  0  0  0  0  0  0
   -1.2611   -5.8190   -3.9133 C   0  0  0  0  0  0  0  0  0  0  0  0
   -0.4325   -5.1667   -3.0102 C   0  0  0  0  0  0  0  0  0  0  0  0
    0.1518   -4.0134   -3.3707 F   0  0  0  0  0  0  0  0  0  0  0  0
   -1.4814   -5.2911   -5.1259 F   0  0  0  0  0  0  0  0  0  0  0  0
   -2.6628   -7.6475   -4.4232 F   0  0  0  0  0  0  0  0  0  0  0  0
   -2.2126   -8.7110   -1.9602 F   0  0  0  0  0  0  0  0  0  0  0  0
   -0.6538   -7.4238   -0.1684 F   0  0  0  0  0  0  0  0  0  0  0  0
    2.0438    1.2031   -0.9658 H   0  0  0  0  0  0  0  0  0  0  0  0
    1.2427    0.4135    0.4362 H   0  0  0  0  0  0  0  0  0  0  0  0
    1.0275   -0.2267   -1.2176 H   0  0  0  0  0  0  0  0  0  0  0  0
    5.2435    0.3219    3.3878 H   0  0  0  0  0  0  0  0  0  0  0  0
    3.5646   -5.5320    3.4053 H   0  0  0  0  0  0  0  0  0  0  0  0
    3.9619   -4.5838    4.8188 H   0  0  0  0  0  0  0  0  0  0  0  0
    4.8660   -4.3442    3.2738 H   0  0  0  0  0  0  0  0  0  0  0  0
    2.6286   -4.7068    1.6039 H   0  0  0  0  0  0  0  0  0  0  0  0
    0.8118   -3.9688   -1.1598 H   0  0  0  0  0  0  0  0  0  0  0  0
  1  2  1  0  0  0  0
  1 32  1  0  0  0  0
  1 33  1  0  0  0  0
  1 34  1  0  0  0  0
  2  3  1  0  0  0  0
  3  4  2  0  0  0  0
  3  8  1  0  0  0  0
  4  5  1  0  0  0  0
  4 15  1  0  0  0  0
  5  6  2  0  0  0  0
  5 13  1  0  0  0  0
  6  7  1  0  0  0  0
  6 12  1  0  0  0  0
  7  8  2  0  0  0  0
  7 35  1  0  0  0  0
  8  9  1  0  0  0  0
  9 10  2  0  0  0  0
  9 11  1  0  0  0  0
 13 14  1  0  0  0  0
 14 36  1  0  0  0  0
 14 37  1  0  0  0  0
 14 38  1  0  0  0  0
 15 16  2  0  0  0  0
 15 17  1  0  0  0  0
 17 18  1  0  0  0  0
 17 39  1  0  0  0  0
 18 19  2  0  0  0  0
 18 20  1  0  0  0  0
 20 21  1  0  0  0  0
 20 40  1  0  0  0  0
 21 22  2  0  0  0  0
 21 26  1  0  0  0  0
 22 23  1  0  0  0  0
 22 31  1  0  0  0  0
 23 24  2  0  0  0  0
 23 30  1  0  0  0  0
 24 25  1  0  0  0  0
 24 29  1  0  0  0  0
 25 26  2  0  0  0  0
 25 28  1  0  0  0  0
 26 27  1  0  0  0  0
M  CHG  2   9   1  11  -1
M  END
