
 OpenBabel10072620173D

 47 48  0  0  0  0  0  0  0  0999 V2000
    1.2725   -2.5987   -1.1746 C   0  0  0  0  0  0  0  0  0  0  0  0
    2.7805   -2.4121   -1.1416 C   0  0  0  0  0  0  0  0  0  0  0  0
    3.1607   -0.9347   -1.2513 C   0  0  0  0  0  0  0  0  0  0  0  0
    4.6752   -0.7068   -1.2087 C   0  0  0  0  0  0  0  0  0  0  0  0
    5.3569   -1.3693   -2.3605 N   0  0  0  0  0  0  0  0  0  0  0  0
    5.0988   -0.7111   -3.6743 C   0  0  0  0  0  0  0  0  0  0  0  0
    4.5452   -1.7465   -4.6576 C   0  0  0  0  0  0  0  0  0  0  0  0
    4.3037   -1.1205   -6.0310 C   0  0  0  0  0  0  0  0  0  0  0  0
    3.7749   -2.1329   -7.0380 C   0  0  0  0  0  0  0  0  0  0  0  0
    7.0110   -1.7431   -2.0966 S   0  0  0  0  0  0  0  0  0  0  0  0
    7.5686   -2.2542   -3.3300 O   0  0  0  0  0  0  0  0  0  0  0  0
    7.6131   -0.6308   -1.3935 O   0  0  0  0  0  0  0  0  0  0  0  0
    6.9041   -3.1286   -0.9909 C   0  0  0  0  0  0  0  0  0  0  0  0
    7.5064   -3.0740    0.2702 C   0  0  0  0  0  0  0  0  0  0  0  0
    7.4540   -4.2270    1.0244 C   0  0  0  0  0  0  0  0  0  0  0  0
    6.8338   -5.3750    0.5675 C   0  0  0  0  0  0  0  0  0  0  0  0
    6.2261   -5.4475   -0.6683 C   0  0  0  0  0  0  0  0  0  0  0  0
    6.2686   -4.2995   -1.4615 C   0  0  0  0  0  0  0  0  0  0  0  0
    7.0128   -6.3163    1.5536 N   0  0  0  0  0  0  0  0  0  0  0  0
    7.7698   -5.7438    2.5560 C   0  0  0  0  0  0  0  0  0  0  0  0
    8.1764   -6.3042    3.5654 O   0  0  0  0  0  0  0  0  0  0  0  0
    8.0316   -4.3940    2.2738 O   0  0  0  0  0  0  0  0  0  0  0  0
    6.6250   -7.6960    1.4802 C   0  0  0  0  0  0  0  0  0  0  0  0
    1.0180   -3.6621   -1.1357 H   0  0  0  0  0  0  0  0  0  0  0  0
    0.8487   -2.1828   -2.0938 H   0  0  0  0  0  0  0  0  0  0  0  0
    0.7970   -2.1048   -0.3218 H   0  0  0  0  0  0  0  0  0  0  0  0
    3.2220   -2.9797   -1.9667 H   0  0  0  0  0  0  0  0  0  0  0  0
    3.1765   -2.8316   -0.2107 H   0  0  0  0  0  0  0  0  0  0  0  0
    2.7016   -0.3857   -0.4196 H   0  0  0  0  0  0  0  0  0  0  0  0
    2.7367   -0.5162   -2.1710 H   0  0  0  0  0  0  0  0  0  0  0  0
    5.0531   -1.1034   -0.2602 H   0  0  0  0  0  0  0  0  0  0  0  0
    4.8895    0.3699   -1.2174 H   0  0  0  0  0  0  0  0  0  0  0  0
    6.0172   -0.2636   -4.0719 H   0  0  0  0  0  0  0  0  0  0  0  0
    4.3865    0.1147   -3.5650 H   0  0  0  0  0  0  0  0  0  0  0  0
    3.6028   -2.1575   -4.2763 H   0  0  0  0  0  0  0  0  0  0  0  0
    5.2373   -2.5924   -4.7523 H   0  0  0  0  0  0  0  0  0  0  0  0
    5.2356   -0.6855   -6.4124 H   0  0  0  0  0  0  0  0  0  0  0  0
    3.5761   -0.3054   -5.9385 H   0  0  0  0  0  0  0  0  0  0  0  0
    4.4985   -2.9358   -7.2171 H   0  0  0  0  0  0  0  0  0  0  0  0
    3.5744   -1.6380   -7.9949 H   0  0  0  0  0  0  0  0  0  0  0  0
    2.8382   -2.5835   -6.6925 H   0  0  0  0  0  0  0  0  0  0  0  0
    8.0159   -2.1897    0.6336 H   0  0  0  0  0  0  0  0  0  0  0  0
    5.7522   -6.3516   -1.0299 H   0  0  0  0  0  0  0  0  0  0  0  0
    5.8266   -4.3120   -2.4574 H   0  0  0  0  0  0  0  0  0  0  0  0
    7.2974   -8.2184    0.7929 H   0  0  0  0  0  0  0  0  0  0  0  0
    5.5934   -7.7789    1.1259 H   0  0  0  0  0  0  0  0  0  0  0  0
    6.7029   -8.1646    2.4663 H   0  0  0  0  0  0  0  0  0  0  0  0
  1  2  1  0  0  0  0
  1 24  1  0  0  0  0
  1 25  1  0  0  0  0
  1 26  1  0  0  0  0
  2  3  1  0  0  0  0
  2 27  1  0  0  0  0
  2 28  1  0  0  0  0
  3  4  1  0  0  0  0
  3 29  1  0  0  0  0
  3 30  1  0  0  0  0
  4  5  1  0  0  0  0
  4 31  1  0  0  0  0
  4 32  1  0  0  0  0
  5  6  1  0  0  0  0
  5 10  1  0  0  0  0
  6  7  1  0  0  0  0
  6 33  1  0  0  0  0
  6 34  1  0  0  0  0
  7  8  1  0  0  0  0
  7 35  1  0  0  0  0
  7 36  1  0  0  0  0
  8  9  1  0  0  0  0
  8 37  1  0  0  0  0
  8 38  1  0  0  0  0
  9 39  1  0  0  0  0
  9 40  1  0  0  0  0
  9 41  1  0  0  0  0
 10 11  2  0  0  0  0
 10 12  2  0  0  0  0
 10 13  1  0  0  0  0
 13 14  2  0  0  0  0
 13 18  1  0  0  0  0
 14 15  1  0  0  0  0
 14 42  1  0  0  0  0
 15 16  2  0  0  0  0
 15 22  1  0  0  0  0
 16 17  1  0  0  0  0
 16 19  1  0  0  0  0
 17 18  2  0  0  0  0
 17 43  1  0  0  0  0
 18 44  1  0  0  0  0
 19 20  1  0  0  0  0
 19 23  1  0  0  0  0
 20 21  2  0  0  0  0
 20 22  1  0  0  0  0
 23 45  1  0  0  0  0
 23 46  1  0  0  0  0
 23 47  1  0  0  0  0
M  END
