
 OpenBabel10072620023D

 56 58  0  0  0  0  0  0  0  0999 V2000
    9.4562   -9.3971   -4.1548 C   0  0  0  0  0  0  0  0  0  0  0  0
   10.0708   -8.3644   -3.2259 C   0  0  0  0  0  0  0  0  0  0  0  0
    9.0161   -7.5442   -2.7247 O   0  0  0  0  0  0  0  0  0  0  0  0
    9.3720   -6.4840   -1.9394 C   0  0  0  0  0  0  0  0  0  0  0  0
   10.6587   -6.1767   -1.5040 C   0  0  0  0  0  0  0  0  0  0  0  0
   10.8850   -5.0466   -0.7050 C   0  0  0  0  0  0  0  0  0  0  0  0
    9.8306   -4.2102   -0.3360 C   0  0  0  0  0  0  0  0  0  0  0  0
    8.5379   -4.5320   -0.7612 C   0  0  0  0  0  0  0  0  0  0  0  0
    8.3137   -5.6592   -1.5574 C   0  0  0  0  0  0  0  0  0  0  0  0
    9.9797   -3.0665    0.4760 N   0  0  0  0  0  0  0  0  0  0  0  0
   11.1693   -2.4703    0.8763 C   0  0  0  0  0  0  0  0  0  0  0  0
   12.2766   -2.7677    0.4521 O   0  0  0  0  0  0  0  0  0  0  0  0
   10.9203   -1.5102    1.8354 N   0  0  0  0  0  0  0  0  0  0  0  0
   11.9240   -0.7542    2.3767 C   0  0  0  0  0  0  0  0  0  0  0  0
   13.1735   -0.6066    2.0192 N   0  0  0  0  0  0  0  0  0  0  0  0
   13.8567    0.2417    2.8730 N   0  0  0  0  0  0  0  0  0  0  0  0
   13.0952    0.6796    3.8559 C   0  0  0  0  0  0  0  0  0  0  0  0
   11.4547    0.1560    3.7428 S   0  0  0  0  0  0  0  0  0  0  0  0
   13.5283    1.5749    4.9725 C   0  0  0  0  0  0  0  0  0  0  0  0
   14.8163    1.1709    5.4461 O   0  0  0  0  0  0  0  0  0  0  0  0
   14.8933    0.3169    6.5158 C   0  0  0  0  0  0  0  0  0  0  0  0
   16.1164    0.3098    7.2192 C   0  0  0  0  0  0  0  0  0  0  0  0
   16.2486   -0.5458    8.3274 C   0  0  0  0  0  0  0  0  0  0  0  0
   15.2161   -1.4062    8.7026 C   0  0  0  0  0  0  0  0  0  0  0  0
   14.0177   -1.4179    7.9912 C   0  0  0  0  0  0  0  0  0  0  0  0
   13.8653   -0.5536    6.8987 C   0  0  0  0  0  0  0  0  0  0  0  0
   12.9230   -2.3799    8.3454 C   0  0  0  0  0  0  0  0  0  0  0  0
   17.2544    1.2410    6.8121 C   0  0  0  0  0  0  0  0  0  0  0  0
   17.1626    2.5560    7.5894 C   0  0  0  0  0  0  0  0  0  0  0  0
   18.6512    0.6272    6.9672 C   0  0  0  0  0  0  0  0  0  0  0  0
   10.2246  -10.0540   -4.5724 H   0  0  0  0  0  0  0  0  0  0  0  0
    8.9252   -8.9066   -4.9778 H   0  0  0  0  0  0  0  0  0  0  0  0
    8.7207  -10.0079   -3.6207 H   0  0  0  0  0  0  0  0  0  0  0  0
   10.7919   -7.7627   -3.7916 H   0  0  0  0  0  0  0  0  0  0  0  0
   10.5748   -8.8778   -2.3989 H   0  0  0  0  0  0  0  0  0  0  0  0
   11.5154   -6.7905   -1.7619 H   0  0  0  0  0  0  0  0  0  0  0  0
   11.9039   -4.8533   -0.3817 H   0  0  0  0  0  0  0  0  0  0  0  0
    7.6866   -3.9152   -0.4884 H   0  0  0  0  0  0  0  0  0  0  0  0
    7.3050   -5.8944   -1.8878 H   0  0  0  0  0  0  0  0  0  0  0  0
    9.1371   -2.5452    0.6615 H   0  0  0  0  0  0  0  0  0  0  0  0
   10.0367   -1.4991    2.3125 H   0  0  0  0  0  0  0  0  0  0  0  0
   12.7997    1.6474    5.7888 H   0  0  0  0  0  0  0  0  0  0  0  0
   13.6451    2.5886    4.5722 H   0  0  0  0  0  0  0  0  0  0  0  0
   17.1639   -0.5607    8.9132 H   0  0  0  0  0  0  0  0  0  0  0  0
   15.3631   -2.0726    9.5495 H   0  0  0  0  0  0  0  0  0  0  0  0
   12.9346   -0.6052    6.3475 H   0  0  0  0  0  0  0  0  0  0  0  0
   13.0947   -2.8395    9.3242 H   0  0  0  0  0  0  0  0  0  0  0  0
   12.8708   -3.1761    7.5960 H   0  0  0  0  0  0  0  0  0  0  0  0
   11.9592   -1.8624    8.3884 H   0  0  0  0  0  0  0  0  0  0  0  0
   17.1568    1.4709    5.7436 H   0  0  0  0  0  0  0  0  0  0  0  0
   17.2671    2.3921    8.6679 H   0  0  0  0  0  0  0  0  0  0  0  0
   16.1991    3.0494    7.4194 H   0  0  0  0  0  0  0  0  0  0  0  0
   17.9510    3.2487    7.2757 H   0  0  0  0  0  0  0  0  0  0  0  0
   18.9265    0.4818    8.0172 H   0  0  0  0  0  0  0  0  0  0  0  0
   19.4056    1.2869    6.5241 H   0  0  0  0  0  0  0  0  0  0  0  0
   18.7137   -0.3416    6.4594 H   0  0  0  0  0  0  0  0  0  0  0  0
  1  2  1  0  0  0  0
  1 31  1  0  0  0  0
  1 32  1  0  0  0  0
  1 33  1  0  0  0  0
  2  3  1  0  0  0  0
  2 34  1  0  0  0  0
  2 35  1  0  0  0  0
  3  4  1  0  0  0  0
  4  5  2  0  0  0  0
  4  9  1  0  0  0  0
  5  6  1  0  0  0  0
  5 36  1  0  0  0  0
  6  7  2  0  0  0  0
  6 37  1  0  0  0  0
  7  8  1  0  0  0  0
  7 10  1  0  0  0  0
  8  9  2  0  0  0  0
  8 38  1  0  0  0  0
  9 39  1  0  0  0  0
 10 11  1  0  0  0  0
 10 40  1  0  0  0  0
 11 12  2  0  0  0  0
 11 13  1  0  0  0  0
 13 14  1  0  0  0  0
 13 41  1  0  0  0  0
 14 15  2  0  0  0  0
 14 18  1  0  0  0  0
 15 16  1  0  0  0  0
 16 17  2  0  0  0  0
 17 18  1  0  0  0  0
 17 19  1  0  0  0  0
 19 20  1  0  0  0  0
 19 42  1  0  0  0  0
 19 43  1  0  0  0  0
 20 21  1  0  0  0  0
 21 22  2  0  0  0  0
 21 26  1  0  0  0  0
 22 23  1  0  0  0  0
 22 28  1  0  0  0  0
 23 24  2  0  0  0  0
 23 44  1  0  0  0  0
 24 25  1  0  0  0  0
 24 45  1  0  0  0  0
 25 26  2  0  0  0  0
 25 27  1  0  0  0  0
 26 46  1  0  0  0  0
 27 47  1  0  0  0  0
 27 48  1  0  0  0  0
 27 49  1  0  0  0  0
 28 29  1  0  0  0  0
 28 30  1  0  0  0  0
 28 50  1  0  0  0  0
 29 51  1  0  0  0  0
 29 52  1  0  0  0  0
 29 53  1  0  0  0  0
 30 54  1  0  0  0  0
 30 55  1  0  0  0  0
 30 56  1  0  0  0  0
M  END
