
 OpenBabel10072619483D

 53 55  0  0  0  0  0  0  0  0999 V2000
    2.1893   -0.2288    1.1689 C   0  0  0  0  0  0  0  0  0  0  0  0
    0.7235    0.0078    0.9599 C   0  0  0  0  0  0  0  0  0  0  0  0
    0.2170    1.3057    0.8451 C   0  0  0  0  0  0  0  0  0  0  0  0
   -1.1469    1.5223    0.6176 C   0  0  0  0  0  0  0  0  0  0  0  0
   -2.0230    0.4442    0.4896 C   0  0  0  0  0  0  0  0  0  0  0  0
   -1.5167   -0.8556    0.6054 C   0  0  0  0  0  0  0  0  0  0  0  0
   -0.1541   -1.0731    0.8321 C   0  0  0  0  0  0  0  0  0  0  0  0
   -3.4086    0.5802    0.2715 N   0  0  0  0  0  0  0  0  0  0  0  0
   -4.0970    1.7335   -0.0335 C   0  0  0  0  0  0  0  0  0  0  0  0
   -3.6090    2.8233   -0.2846 O   0  0  0  0  0  0  0  0  0  0  0  0
   -5.4533    1.5010   -0.0403 N   0  0  0  0  0  0  0  0  0  0  0  0
   -6.4844    2.5019   -0.3213 C   0  0  0  0  0  0  0  0  0  0  0  0
   -6.4725    3.0261   -1.7623 C   0  0  0  0  0  0  0  0  0  0  0  0
   -5.7349    4.3456   -1.9526 C   0  0  0  0  0  0  0  0  0  0  0  0
   -6.2352    5.3277   -0.9528 N   0  0  0  0  0  0  0  0  0  0  0  0
   -5.8613    4.8888    0.4187 C   0  0  0  0  0  0  0  0  0  0  0  0
   -6.5994    3.5958    0.7468 C   0  0  0  0  0  0  0  0  0  0  0  0
   -5.8007    6.9553   -1.2715 S   0  0  0  0  0  0  0  0  0  0  0  0
   -6.3620    7.7859   -0.2263 O   0  0  0  0  0  0  0  0  0  0  0  0
   -4.3880    6.9942   -1.5826 O   0  0  0  0  0  0  0  0  0  0  0  0
   -6.7144    7.3051   -2.7549 C   0  0  0  0  0  0  0  0  0  0  0  0
   -8.1015    7.4602   -2.6769 C   0  0  0  0  0  0  0  0  0  0  0  0
   -8.8315    7.7552   -3.8318 C   0  0  0  0  0  0  0  0  0  0  0  0
   -8.1750    7.9002   -5.0563 C   0  0  0  0  0  0  0  0  0  0  0  0
   -6.7862    7.7396   -5.1199 C   0  0  0  0  0  0  0  0  0  0  0  0
   -6.0481    7.4502   -3.9718 C   0  0  0  0  0  0  0  0  0  0  0  0
   -8.7688    8.1884   -6.2541 O   0  0  0  0  0  0  0  0  0  0  0  0
  -10.1338    8.5847   -6.2119 C   0  0  0  0  0  0  0  0  0  0  0  0
    2.6995    0.6877    1.4841 H   0  0  0  0  0  0  0  0  0  0  0  0
    2.6452   -0.5758    0.2363 H   0  0  0  0  0  0  0  0  0  0  0  0
    2.3483   -0.9795    1.9502 H   0  0  0  0  0  0  0  0  0  0  0  0
    0.8766    2.1666    0.9329 H   0  0  0  0  0  0  0  0  0  0  0  0
   -1.4930    2.5495    0.5507 H   0  0  0  0  0  0  0  0  0  0  0  0
   -2.1719   -1.7177    0.5150 H   0  0  0  0  0  0  0  0  0  0  0  0
    0.2174   -2.0927    0.9068 H   0  0  0  0  0  0  0  0  0  0  0  0
   -3.9313   -0.2771    0.1817 H   0  0  0  0  0  0  0  0  0  0  0  0
   -5.7488    0.7251    0.5332 H   0  0  0  0  0  0  0  0  0  0  0  0
   -7.4002    1.9000   -0.2349 H   0  0  0  0  0  0  0  0  0  0  0  0
   -7.5171    3.1949   -2.0600 H   0  0  0  0  0  0  0  0  0  0  0  0
   -6.0746    2.2721   -2.4512 H   0  0  0  0  0  0  0  0  0  0  0  0
   -5.9436    4.6966   -2.9677 H   0  0  0  0  0  0  0  0  0  0  0  0
   -4.6524    4.2258   -1.8715 H   0  0  0  0  0  0  0  0  0  0  0  0
   -6.1755    5.6419    1.1500 H   0  0  0  0  0  0  0  0  0  0  0  0
   -4.7779    4.7780    0.5122 H   0  0  0  0  0  0  0  0  0  0  0  0
   -7.6649    3.8461    0.8462 H   0  0  0  0  0  0  0  0  0  0  0  0
   -6.2802    3.2235    1.7271 H   0  0  0  0  0  0  0  0  0  0  0  0
   -8.6135    7.3564   -1.7226 H   0  0  0  0  0  0  0  0  0  0  0  0
   -9.9071    7.8667   -3.7421 H   0  0  0  0  0  0  0  0  0  0  0  0
   -6.2757    7.8544   -6.0734 H   0  0  0  0  0  0  0  0  0  0  0  0
   -4.9680    7.3410   -4.0359 H   0  0  0  0  0  0  0  0  0  0  0  0
  -10.4314    8.8657   -7.2267 H   0  0  0  0  0  0  0  0  0  0  0  0
  -10.2725    9.4606   -5.5693 H   0  0  0  0  0  0  0  0  0  0  0  0
  -10.7746    7.7556   -5.8950 H   0  0  0  0  0  0  0  0  0  0  0  0
  1  2  1  0  0  0  0
  1 29  1  0  0  0  0
  1 30  1  0  0  0  0
  1 31  1  0  0  0  0
  2  3  2  0  0  0  0
  2  7  1  0  0  0  0
  3  4  1  0  0  0  0
  3 32  1  0  0  0  0
  4  5  2  0  0  0  0
  4 33  1  0  0  0  0
  5  6  1  0  0  0  0
  5  8  1  0  0  0  0
  6  7  2  0  0  0  0
  6 34  1  0  0  0  0
  7 35  1  0  0  0  0
  8  9  1  0  0  0  0
  8 36  1  0  0  0  0
  9 10  2  0  0  0  0
  9 11  1  0  0  0  0
 11 12  1  0  0  0  0
 11 37  1  0  0  0  0
 12 13  1  0  0  0  0
 12 17  1  0  0  0  0
 12 38  1  0  0  0  0
 13 14  1  0  0  0  0
 13 39  1  0  0  0  0
 13 40  1  0  0  0  0
 14 15  1  0  0  0  0
 14 41  1  0  0  0  0
 14 42  1  0  0  0  0
 15 16  1  0  0  0  0
 15 18  1  0  0  0  0
 16 17  1  0  0  0  0
 16 43  1  0  0  0  0
 16 44  1  0  0  0  0
 17 45  1  0  0  0  0
 17 46  1  0  0  0  0
 18 19  2  0  0  0  0
 18 20  2  0  0  0  0
 18 21  1  0  0  0  0
 21 22  2  0  0  0  0
 21 26  1  0  0  0  0
 22 23  1  0  0  0  0
 22 47  1  0  0  0  0
 23 24  2  0  0  0  0
 23 48  1  0  0  0  0
 24 25  1  0  0  0  0
 24 27  1  0  0  0  0
 25 26  2  0  0  0  0
 25 49  1  0  0  0  0
 26 50  1  0  0  0  0
 27 28  1  0  0  0  0
 28 51  1  0  0  0  0
 28 52  1  0  0  0  0
 28 53  1  0  0  0  0
M  END
