
 OpenBabel10072616343D

 54 57  0  0  0  0  0  0  0  0999 V2000
    1.0633    0.9196   -0.2705 C   0  0  0  0  0  0  0  0  0  0  0  0
    2.0710    0.6014    0.8316 C   0  0  0  0  0  0  0  0  0  0  0  0
    2.8664   -0.5794    0.4942 N   0  0  0  0  0  0  0  0  0  0  0  0
    2.2225   -1.8001    0.6719 C   0  0  0  0  0  0  0  0  0  0  0  0
    1.1916   -1.9650    1.3085 O   0  0  0  0  0  0  0  0  0  0  0  0
    3.0091   -2.8995    0.0514 C   0  0  0  0  0  0  0  0  0  0  0  0
    2.5492   -4.1059   -0.3102 C   0  0  0  0  0  0  0  0  0  0  0  0
    1.1522   -4.4749   -0.2857 C   0  0  0  0  0  0  0  0  0  0  0  0
    0.1959   -3.8563   -1.0077 C   0  0  0  0  0  0  0  0  0  0  0  0
   -1.3236   -4.0517   -0.7181 C   0  0  0  0  0  0  0  0  0  0  0  0
   -1.9279   -2.9576   -1.5835 C   0  0  0  0  0  0  0  0  0  0  0  0
   -3.2550   -2.5798   -1.7251 C   0  0  0  0  0  0  0  0  0  0  0  0
   -3.5581   -1.5455   -2.6107 C   0  0  0  0  0  0  0  0  0  0  0  0
   -2.5433   -0.9114   -3.3415 C   0  0  0  0  0  0  0  0  0  0  0  0
   -1.2102   -1.3045   -3.1997 C   0  0  0  0  0  0  0  0  0  0  0  0
   -0.9077   -2.3280   -2.3156 C   0  0  0  0  0  0  0  0  0  0  0  0
    0.3541   -2.8586   -1.9879 N   0  0  0  0  0  0  0  0  0  0  0  0
    1.3448   -2.8396   -3.0550 C   0  0  0  0  0  0  0  0  0  0  0  0
   -1.6757   -3.8316    0.7604 C   0  0  0  0  0  0  0  0  0  0  0  0
   -1.8063   -5.4300   -1.1906 C   0  0  0  0  0  0  0  0  0  0  0  0
    4.5988   -2.3436   -0.2660 S   0  0  0  0  0  0  0  0  0  0  0  0
    4.1515   -0.6489    0.0114 C   0  0  0  0  0  0  0  0  0  0  0  0
    5.0728    0.1910   -0.2813 N   0  0  0  0  0  0  0  0  0  0  0  0
    4.9813    1.7714   -0.1221 S   0  0  0  0  0  0  0  0  0  0  0  0
    4.0215    2.3230   -1.0556 O   0  0  0  0  0  0  0  0  0  0  0  0
    5.0198    2.1602    1.2686 O   0  0  0  0  0  0  0  0  0  0  0  0
    6.5677    2.2196   -0.7944 C   0  0  0  0  0  0  0  0  0  0  0  0
    6.9315    2.8590   -1.9673 C   0  0  0  0  0  0  0  0  0  0  0  0
    8.3443    2.9980   -2.0934 C   0  0  0  0  0  0  0  0  0  0  0  0
    8.9886    2.4672   -1.0071 C   0  0  0  0  0  0  0  0  0  0  0  0
    7.9438    1.8017    0.1424 S   0  0  0  0  0  0  0  0  0  0  0  0
   10.6845    2.4146   -0.7465 Cl  0  0  0  0  0  0  0  0  0  0  0  0
    0.5465    1.8622   -0.0620 H   0  0  0  0  0  0  0  0  0  0  0  0
    0.3052    0.1305   -0.3449 H   0  0  0  0  0  0  0  0  0  0  0  0
    1.5503    0.9989   -1.2478 H   0  0  0  0  0  0  0  0  0  0  0  0
    1.5189    0.4002    1.7577 H   0  0  0  0  0  0  0  0  0  0  0  0
    2.6940    1.4657    1.0415 H   0  0  0  0  0  0  0  0  0  0  0  0
    3.2174   -4.8485   -0.7360 H   0  0  0  0  0  0  0  0  0  0  0  0
    0.8858   -5.2294    0.4487 H   0  0  0  0  0  0  0  0  0  0  0  0
   -4.0397   -3.0716   -1.1612 H   0  0  0  0  0  0  0  0  0  0  0  0
   -4.5902   -1.2284   -2.7361 H   0  0  0  0  0  0  0  0  0  0  0  0
   -2.7960   -0.0999   -4.0187 H   0  0  0  0  0  0  0  0  0  0  0  0
   -0.4375   -0.7930   -3.7620 H   0  0  0  0  0  0  0  0  0  0  0  0
    0.9429   -3.2963   -3.9674 H   0  0  0  0  0  0  0  0  0  0  0  0
    2.2540   -3.3907   -2.8028 H   0  0  0  0  0  0  0  0  0  0  0  0
    1.6516   -1.8119   -3.2798 H   0  0  0  0  0  0  0  0  0  0  0  0
   -1.3230   -2.8582    1.1193 H   0  0  0  0  0  0  0  0  0  0  0  0
   -1.2334   -4.6036    1.4002 H   0  0  0  0  0  0  0  0  0  0  0  0
   -2.7592   -3.8613    0.9213 H   0  0  0  0  0  0  0  0  0  0  0  0
   -1.5620   -5.6068   -2.2452 H   0  0  0  0  0  0  0  0  0  0  0  0
   -2.8940   -5.5248   -1.0892 H   0  0  0  0  0  0  0  0  0  0  0  0
   -1.3508   -6.2360   -0.6039 H   0  0  0  0  0  0  0  0  0  0  0  0
    6.2097    3.2039   -2.6982 H   0  0  0  0  0  0  0  0  0  0  0  0
    8.8522    3.4575   -2.9311 H   0  0  0  0  0  0  0  0  0  0  0  0
  1  2  1  0  0  0  0
  1 33  1  0  0  0  0
  1 34  1  0  0  0  0
  1 35  1  0  0  0  0
  2  3  1  0  0  0  0
  2 36  1  0  0  0  0
  2 37  1  0  0  0  0
  3  4  1  0  0  0  0
  3 22  1  0  0  0  0
  4  5  2  0  0  0  0
  4  6  1  0  0  0  0
  6  7  2  0  0  0  0
  6 21  1  0  0  0  0
  7  8  1  0  0  0  0
  7 38  1  0  0  0  0
  8  9  2  0  0  0  0
  8 39  1  0  0  0  0
  9 10  1  0  0  0  0
  9 17  1  0  0  0  0
 10 11  1  0  0  0  0
 10 19  1  0  0  0  0
 10 20  1  0  0  0  0
 11 12  2  0  0  0  0
 11 16  1  0  0  0  0
 12 13  1  0  0  0  0
 12 40  1  0  0  0  0
 13 14  2  0  0  0  0
 13 41  1  0  0  0  0
 14 15  1  0  0  0  0
 14 42  1  0  0  0  0
 15 16  2  0  0  0  0
 15 43  1  0  0  0  0
 16 17  1  0  0  0  0
 17 18  1  0  0  0  0
 18 44  1  0  0  0  0
 18 45  1  0  0  0  0
 18 46  1  0  0  0  0
 19 47  1  0  0  0  0
 19 48  1  0  0  0  0
 19 49  1  0  0  0  0
 20 50  1  0  0  0  0
 20 51  1  0  0  0  0
 20 52  1  0  0  0  0
 21 22  1  0  0  0  0
 22 23  2  0  0  0  0
 23 24  1  0  0  0  0
 24 25  2  0  0  0  0
 24 26  2  0  0  0  0
 24 27  1  0  0  0  0
 27 28  2  0  0  0  0
 27 31  1  0  0  0  0
 28 29  1  0  0  0  0
 28 53  1  0  0  0  0
 29 30  2  0  0  0  0
 29 54  1  0  0  0  0
 30 31  1  0  0  0  0
 30 32  1  0  0  0  0
M  END
