
 OpenBabel10072619553D

 32 33  0  0  0  0  0  0  0  0999 V2000
    2.0693    0.2051    0.1794 C   0  0  0  0  0  0  0  0  0  0  0  0
    1.2116    1.2955    0.2698 C   0  0  0  0  0  0  0  0  0  0  0  0
   -0.1436    1.1381   -0.0202 C   0  0  0  0  0  0  0  0  0  0  0  0
   -0.6529   -0.1144   -0.3919 C   0  0  0  0  0  0  0  0  0  0  0  0
    0.2000   -1.2258   -0.4678 C   0  0  0  0  0  0  0  0  0  0  0  0
    1.5682   -1.0442   -0.1896 C   0  0  0  0  0  0  0  0  0  0  0  0
   -0.2044   -2.6168   -0.8358 C   0  0  0  0  0  0  0  0  0  0  0  0
    0.6195   -3.3256   -1.4037 O   0  0  0  0  0  0  0  0  0  0  0  0
   -1.5189   -2.9904   -0.5714 N   0  0  0  0  0  0  0  0  0  0  0  0
   -2.0753   -4.2676   -0.3820 C   0  0  0  0  0  0  0  0  0  0  0  0
   -1.1990   -5.6797   -0.2195 S   0  0  0  0  0  0  0  0  0  0  0  0
   -3.4697   -4.1494   -0.3999 N   0  0  0  0  0  0  0  0  0  0  0  0
   -4.4692   -5.0464    0.0383 C   0  0  0  0  0  0  0  0  0  0  0  0
   -4.2861   -5.9717    1.0666 C   0  0  0  0  0  0  0  0  0  0  0  0
   -5.3541   -6.7949    1.4559 C   0  0  0  0  0  0  0  0  0  0  0  0
   -6.6070   -6.6974    0.8397 C   0  0  0  0  0  0  0  0  0  0  0  0
   -6.7962   -5.7525   -0.1640 C   0  0  0  0  0  0  0  0  0  0  0  0
   -5.7366   -4.9275   -0.5531 C   0  0  0  0  0  0  0  0  0  0  0  0
   -5.1665   -7.7567    2.5445 N   0  3  0  0  0  0  0  0  0  0  0  0
   -4.2159   -7.5733    3.3174 O   0  0  0  0  0  0  0  0  0  0  0  0
   -5.9832   -8.6847    2.6367 O   0  5  0  0  0  0  0  0  0  0  0  0
   -2.3396   -0.1700   -0.7742 Cl  0  0  0  0  0  0  0  0  0  0  0  0
    3.1297    0.3222    0.3926 H   0  0  0  0  0  0  0  0  0  0  0  0
    1.6000    2.2698    0.5578 H   0  0  0  0  0  0  0  0  0  0  0  0
   -0.8004    2.0037    0.0407 H   0  0  0  0  0  0  0  0  0  0  0  0
    2.2571   -1.8869   -0.2566 H   0  0  0  0  0  0  0  0  0  0  0  0
   -2.1226   -2.2520   -0.2388 H   0  0  0  0  0  0  0  0  0  0  0  0
   -3.7967   -3.4278   -1.0332 H   0  0  0  0  0  0  0  0  0  0  0  0
   -3.3393   -6.0432    1.5933 H   0  0  0  0  0  0  0  0  0  0  0  0
   -7.4366   -7.3338    1.1408 H   0  0  0  0  0  0  0  0  0  0  0  0
   -7.7671   -5.6572   -0.6452 H   0  0  0  0  0  0  0  0  0  0  0  0
   -5.9135   -4.2029   -1.3452 H   0  0  0  0  0  0  0  0  0  0  0  0
  1  2  2  0  0  0  0
  1  6  1  0  0  0  0
  1 23  1  0  0  0  0
  2  3  1  0  0  0  0
  2 24  1  0  0  0  0
  3  4  2  0  0  0  0
  3 25  1  0  0  0  0
  4  5  1  0  0  0  0
  4 22  1  0  0  0  0
  5  6  2  0  0  0  0
  5  7  1  0  0  0  0
  6 26  1  0  0  0  0
  7  8  2  0  0  0  0
  7  9  1  0  0  0  0
  9 10  1  0  0  0  0
  9 27  1  0  0  0  0
 10 11  2  0  0  0  0
 10 12  1  0  0  0  0
 12 13  1  0  0  0  0
 12 28  1  0  0  0  0
 13 14  2  0  0  0  0
 13 18  1  0  0  0  0
 14 15  1  0  0  0  0
 14 29  1  0  0  0  0
 15 16  2  0  0  0  0
 15 19  1  0  0  0  0
 16 17  1  0  0  0  0
 16 30  1  0  0  0  0
 17 18  2  0  0  0  0
 17 31  1  0  0  0  0
 18 32  1  0  0  0  0
 19 20  2  0  0  0  0
 19 21  1  0  0  0  0
M  CHG  2  19   1  21  -1
M  END
