
 OpenBabel10072620213D

 52 54  0  0  0  0  0  0  0  0999 V2000
    2.3275   -4.3857    1.9159 C   0  0  0  0  0  0  0  0  0  0  0  0
    3.5992   -3.9485    1.4581 O   0  0  0  0  0  0  0  0  0  0  0  0
    3.7848   -3.8674    0.1081 C   0  0  0  0  0  0  0  0  0  0  0  0
    2.8574   -4.1892   -0.8808 C   0  0  0  0  0  0  0  0  0  0  0  0
    3.2085   -4.0917   -2.2369 C   0  0  0  0  0  0  0  0  0  0  0  0
    4.4890   -3.6866   -2.6188 C   0  0  0  0  0  0  0  0  0  0  0  0
    5.4026   -3.3297   -1.6203 C   0  0  0  0  0  0  0  0  0  0  0  0
    5.0501   -3.4178   -0.2706 C   0  0  0  0  0  0  0  0  0  0  0  0
    4.9396   -3.6426   -3.9561 N   0  0  0  0  0  0  0  0  0  0  0  0
    4.2079   -3.8837   -5.1035 C   0  0  0  0  0  0  0  0  0  0  0  0
    3.0011   -4.0716   -5.1669 O   0  0  0  0  0  0  0  0  0  0  0  0
    5.0293   -3.8547   -6.2144 N   0  0  0  0  0  0  0  0  0  0  0  0
    4.5765   -4.1337   -7.6046 C   0  0  0  0  0  0  0  0  0  0  0  0
    3.4350   -3.2032   -8.0758 C   0  0  0  0  0  0  0  0  0  0  0  0
    2.9183   -3.5708   -9.4670 C   0  0  0  0  0  0  0  0  0  0  0  0
    2.3976   -5.0014   -9.4922 C   0  0  0  0  0  0  0  0  0  0  0  0
    3.4633   -5.9925   -9.0437 C   0  0  0  0  0  0  0  0  0  0  0  0
    4.0974   -5.6139   -7.6998 C   0  0  0  0  0  0  0  0  0  0  0  0
    5.8791   -3.9385   -8.4791 C   0  0  0  0  0  0  0  0  0  0  0  0
    6.3023   -4.8564   -9.1855 O   0  0  0  0  0  0  0  0  0  0  0  0
    6.5874   -2.7459   -8.4257 N   0  0  0  0  0  0  0  0  0  0  0  0
    7.7497   -2.5716   -9.2786 C   0  0  0  0  0  0  0  0  0  0  0  0
    8.3962   -1.2655   -8.8310 C   0  0  0  0  0  0  0  0  0  0  0  0
    7.4746   -0.6846   -7.7587 C   0  0  0  0  0  0  0  0  0  0  0  0
    6.1767   -1.4605   -7.8961 C   0  0  0  0  0  0  0  0  0  0  0  0
    2.3786   -4.4512    3.0070 H   0  0  0  0  0  0  0  0  0  0  0  0
    2.0793   -5.3822    1.5358 H   0  0  0  0  0  0  0  0  0  0  0  0
    1.5508   -3.6587    1.6598 H   0  0  0  0  0  0  0  0  0  0  0  0
    1.8570   -4.5361   -0.6398 H   0  0  0  0  0  0  0  0  0  0  0  0
    2.4599   -4.3682   -2.9741 H   0  0  0  0  0  0  0  0  0  0  0  0
    6.4033   -2.9873   -1.8681 H   0  0  0  0  0  0  0  0  0  0  0  0
    5.7754   -3.1601    0.4981 H   0  0  0  0  0  0  0  0  0  0  0  0
    5.8903   -3.3364   -4.0941 H   0  0  0  0  0  0  0  0  0  0  0  0
    5.9949   -4.0988   -6.0389 H   0  0  0  0  0  0  0  0  0  0  0  0
    3.7300   -2.1535   -8.0746 H   0  0  0  0  0  0  0  0  0  0  0  0
    2.5845   -3.2597   -7.3871 H   0  0  0  0  0  0  0  0  0  0  0  0
    3.7139   -3.4433  -10.2102 H   0  0  0  0  0  0  0  0  0  0  0  0
    2.1088   -2.8882   -9.7497 H   0  0  0  0  0  0  0  0  0  0  0  0
    2.0630   -5.2559  -10.5044 H   0  0  0  0  0  0  0  0  0  0  0  0
    1.5189   -5.0797   -8.8389 H   0  0  0  0  0  0  0  0  0  0  0  0
    4.2350   -6.0642   -9.8189 H   0  0  0  0  0  0  0  0  0  0  0  0
    3.0131   -6.9896   -8.9614 H   0  0  0  0  0  0  0  0  0  0  0  0
    4.9323   -6.2985   -7.4982 H   0  0  0  0  0  0  0  0  0  0  0  0
    3.3502   -5.8202   -6.9214 H   0  0  0  0  0  0  0  0  0  0  0  0
    7.3993   -2.5130  -10.3176 H   0  0  0  0  0  0  0  0  0  0  0  0
    8.4284   -3.4268   -9.1892 H   0  0  0  0  0  0  0  0  0  0  0  0
    8.5235   -0.5720   -9.6707 H   0  0  0  0  0  0  0  0  0  0  0  0
    9.3949   -1.4606   -8.4217 H   0  0  0  0  0  0  0  0  0  0  0  0
    7.3224    0.3932   -7.8796 H   0  0  0  0  0  0  0  0  0  0  0  0
    7.9154   -0.8473   -6.7668 H   0  0  0  0  0  0  0  0  0  0  0  0
    5.5399   -0.9886   -8.6533 H   0  0  0  0  0  0  0  0  0  0  0  0
    5.6286   -1.5281   -6.9546 H   0  0  0  0  0  0  0  0  0  0  0  0
  1  2  1  0  0  0  0
  1 26  1  0  0  0  0
  1 27  1  0  0  0  0
  1 28  1  0  0  0  0
  2  3  1  0  0  0  0
  3  4  2  0  0  0  0
  3  8  1  0  0  0  0
  4  5  1  0  0  0  0
  4 29  1  0  0  0  0
  5  6  2  0  0  0  0
  5 30  1  0  0  0  0
  6  7  1  0  0  0  0
  6  9  1  0  0  0  0
  7  8  2  0  0  0  0
  7 31  1  0  0  0  0
  8 32  1  0  0  0  0
  9 10  1  0  0  0  0
  9 33  1  0  0  0  0
 10 11  2  0  0  0  0
 10 12  1  0  0  0  0
 12 13  1  0  0  0  0
 12 34  1  0  0  0  0
 13 14  1  0  0  0  0
 13 18  1  0  0  0  0
 13 19  1  0  0  0  0
 14 15  1  0  0  0  0
 14 35  1  0  0  0  0
 14 36  1  0  0  0  0
 15 16  1  0  0  0  0
 15 37  1  0  0  0  0
 15 38  1  0  0  0  0
 16 17  1  0  0  0  0
 16 39  1  0  0  0  0
 16 40  1  0  0  0  0
 17 18  1  0  0  0  0
 17 41  1  0  0  0  0
 17 42  1  0  0  0  0
 18 43  1  0  0  0  0
 18 44  1  0  0  0  0
 19 20  2  0  0  0  0
 19 21  1  0  0  0  0
 21 22  1  0  0  0  0
 21 25  1  0  0  0  0
 22 23  1  0  0  0  0
 22 45  1  0  0  0  0
 22 46  1  0  0  0  0
 23 24  1  0  0  0  0
 23 47  1  0  0  0  0
 23 48  1  0  0  0  0
 24 25  1  0  0  0  0
 24 49  1  0  0  0  0
 24 50  1  0  0  0  0
 25 51  1  0  0  0  0
 25 52  1  0  0  0  0
M  END
