
 OpenBabel10072620103D

 38 40  0  0  0  0  0  0  0  0999 V2000
   -0.6799    1.3604    0.4160 C   0  0  0  0  0  0  0  0  0  0  0  0
   -1.6904    0.4291    0.6812 C   0  0  0  0  0  0  0  0  0  0  0  0
   -1.5042   -0.9128    0.3277 C   0  0  0  0  0  0  0  0  0  0  0  0
   -0.3180   -1.3249   -0.2888 C   0  0  0  0  0  0  0  0  0  0  0  0
    0.6839   -0.3849   -0.5503 C   0  0  0  0  0  0  0  0  0  0  0  0
    0.5175    0.9635   -0.1988 C   0  0  0  0  0  0  0  0  0  0  0  0
    1.5737    1.9280   -0.4878 C   0  0  0  0  0  0  0  0  0  0  0  0
    2.4991    1.9961   -1.5122 C   0  0  0  0  0  0  0  0  0  0  0  0
    3.2743    3.1520   -1.2665 C   0  0  0  0  0  0  0  0  0  0  0  0
    2.9071    3.7404   -0.1279 N   0  0  0  0  0  0  0  0  0  0  0  0
    1.8790    2.9995    0.3103 N   0  0  0  0  0  0  0  0  0  0  0  0
    4.3114    3.5958   -2.0054 N   0  0  0  0  0  0  0  0  0  0  0  0
    4.6603    3.4195   -3.3578 C   0  0  0  0  0  0  0  0  0  0  0  0
    3.7493    3.0112   -4.3411 C   0  0  0  0  0  0  0  0  0  0  0  0
    4.1579    2.7960   -5.6614 C   0  0  0  0  0  0  0  0  0  0  0  0
    5.4963    2.9814   -6.0056 C   0  0  0  0  0  0  0  0  0  0  0  0
    6.4270    3.3709   -5.0423 C   0  0  0  0  0  0  0  0  0  0  0  0
    6.0049    3.5886   -3.7279 C   0  0  0  0  0  0  0  0  0  0  0  0
    6.0376    2.6655   -7.6576 S   0  0  0  0  0  0  0  0  0  0  0  0
    7.3661    2.1015   -7.6153 O   0  0  0  0  0  0  0  0  0  0  0  0
    4.9613    2.0619   -8.4083 O   0  0  0  0  0  0  0  0  0  0  0  0
    6.2067    4.2182   -8.2724 N   0  0  0  0  0  0  0  0  0  0  0  0
   -2.5616   -1.8936    0.6026 N   0  3  0  0  0  0  0  0  0  0  0  0
   -3.5981   -1.4856    1.1458 O   0  0  0  0  0  0  0  0  0  0  0  0
   -2.3544   -3.0711    0.2776 O   0  5  0  0  0  0  0  0  0  0  0  0
   -0.8553    2.4022    0.6760 H   0  0  0  0  0  0  0  0  0  0  0  0
   -2.6112    0.7667    1.1532 H   0  0  0  0  0  0  0  0  0  0  0  0
   -0.1555   -2.3635   -0.5704 H   0  0  0  0  0  0  0  0  0  0  0  0
    1.6047   -0.7215   -1.0242 H   0  0  0  0  0  0  0  0  0  0  0  0
    2.6039    1.2944   -2.3265 H   0  0  0  0  0  0  0  0  0  0  0  0
    1.4406    3.2652    1.1847 H   0  0  0  0  0  0  0  0  0  0  0  0
    4.8498    4.3312   -1.5587 H   0  0  0  0  0  0  0  0  0  0  0  0
    2.6962    2.8889   -4.1037 H   0  0  0  0  0  0  0  0  0  0  0  0
    3.4266    2.4875   -6.4051 H   0  0  0  0  0  0  0  0  0  0  0  0
    7.4753    3.4980   -5.3019 H   0  0  0  0  0  0  0  0  0  0  0  0
    6.7435    3.8734   -2.9814 H   0  0  0  0  0  0  0  0  0  0  0  0
    7.1791    4.3836   -8.5332 H   0  0  0  0  0  0  0  0  0  0  0  0
    5.5451    4.3611   -9.0359 H   0  0  0  0  0  0  0  0  0  0  0  0
  1  2  2  0  0  0  0
  1  6  1  0  0  0  0
  1 26  1  0  0  0  0
  2  3  1  0  0  0  0
  2 27  1  0  0  0  0
  3  4  2  0  0  0  0
  3 23  1  0  0  0  0
  4  5  1  0  0  0  0
  4 28  1  0  0  0  0
  5  6  2  0  0  0  0
  5 29  1  0  0  0  0
  6  7  1  0  0  0  0
  7  8  2  0  0  0  0
  7 11  1  0  0  0  0
  8  9  1  0  0  0  0
  8 30  1  0  0  0  0
  9 10  2  0  0  0  0
  9 12  1  0  0  0  0
 10 11  1  0  0  0  0
 11 31  1  0  0  0  0
 12 13  1  0  0  0  0
 12 32  1  0  0  0  0
 13 14  2  0  0  0  0
 13 18  1  0  0  0  0
 14 15  1  0  0  0  0
 14 33  1  0  0  0  0
 15 16  2  0  0  0  0
 15 34  1  0  0  0  0
 16 17  1  0  0  0  0
 16 19  1  0  0  0  0
 17 18  2  0  0  0  0
 17 35  1  0  0  0  0
 18 36  1  0  0  0  0
 19 20  2  0  0  0  0
 19 21  2  0  0  0  0
 19 22  1  0  0  0  0
 22 37  1  0  0  0  0
 22 38  1  0  0  0  0
 23 24  2  0  0  0  0
 23 25  1  0  0  0  0
M  CHG  2  23   1  25  -1
M  END
