
 OpenBabel10072616323D

 33 34  0  0  0  0  0  0  0  0999 V2000
    2.8380   -0.2501   -0.0100 C   0  0  0  0  0  0  0  0  0  0  0  0
    1.3549   -0.0316    0.0267 C   0  0  0  0  0  0  0  0  0  0  0  0
    0.8078    1.1874   -0.3882 C   0  0  0  0  0  0  0  0  0  0  0  0
   -0.5772    1.3897   -0.3873 C   0  0  0  0  0  0  0  0  0  0  0  0
   -1.4463    0.3572   -0.0006 C   0  0  0  0  0  0  0  0  0  0  0  0
   -0.8910   -0.8702    0.3939 C   0  0  0  0  0  0  0  0  0  0  0  0
    0.4930   -1.0624    0.4082 C   0  0  0  0  0  0  0  0  0  0  0  0
   -2.9413    0.5015   -0.0281 C   0  0  0  0  0  0  0  0  0  0  0  0
   -1.0631    2.6588   -0.8542 N   0  0  0  0  0  0  0  0  0  0  0  0
   -1.2653    2.7737   -2.5430 S   0  0  0  0  0  0  0  0  0  0  0  0
   -0.2551    2.0148   -3.2447 O   0  0  0  0  0  0  0  0  0  0  0  0
   -2.6803    2.5996   -2.7947 O   0  0  0  0  0  0  0  0  0  0  0  0
   -0.8790    4.4943   -2.7870 C   0  0  0  0  0  0  0  0  0  0  0  0
    0.4530    4.9101   -2.6792 C   0  0  0  0  0  0  0  0  0  0  0  0
    0.7715    6.2551   -2.8751 C   0  0  0  0  0  0  0  0  0  0  0  0
   -0.2378    7.1685   -3.1830 C   0  0  0  0  0  0  0  0  0  0  0  0
   -1.5647    6.7498   -3.3006 C   0  0  0  0  0  0  0  0  0  0  0  0
   -1.8907    5.4056   -3.1048 C   0  0  0  0  0  0  0  0  0  0  0  0
    0.1571    8.8258   -3.4235 Cl  0  0  0  0  0  0  0  0  0  0  0  0
    3.3750    0.6849    0.1819 H   0  0  0  0  0  0  0  0  0  0  0  0
    3.1360   -0.6344   -0.9903 H   0  0  0  0  0  0  0  0  0  0  0  0
    3.1466   -0.9653    0.7598 H   0  0  0  0  0  0  0  0  0  0  0  0
    1.4652    1.9877   -0.7187 H   0  0  0  0  0  0  0  0  0  0  0  0
   -1.5357   -1.6969    0.6863 H   0  0  0  0  0  0  0  0  0  0  0  0
    0.8922   -2.0284    0.7106 H   0  0  0  0  0  0  0  0  0  0  0  0
   -3.2545    1.4010    0.5108 H   0  0  0  0  0  0  0  0  0  0  0  0
   -3.4347   -0.3475    0.4578 H   0  0  0  0  0  0  0  0  0  0  0  0
   -3.2985    0.5472   -1.0607 H   0  0  0  0  0  0  0  0  0  0  0  0
   -1.9644    2.8880   -0.4341 H   0  0  0  0  0  0  0  0  0  0  0  0
    1.2387    4.1942   -2.4475 H   0  0  0  0  0  0  0  0  0  0  0  0
    1.8046    6.5832   -2.7908 H   0  0  0  0  0  0  0  0  0  0  0  0
   -2.3461    7.4641   -3.5485 H   0  0  0  0  0  0  0  0  0  0  0  0
   -2.9247    5.0830   -3.2060 H   0  0  0  0  0  0  0  0  0  0  0  0
  1  2  1  0  0  0  0
  1 20  1  0  0  0  0
  1 21  1  0  0  0  0
  1 22  1  0  0  0  0
  2  3  2  0  0  0  0
  2  7  1  0  0  0  0
  3  4  1  0  0  0  0
  3 23  1  0  0  0  0
  4  5  2  0  0  0  0
  4  9  1  0  0  0  0
  5  6  1  0  0  0  0
  5  8  1  0  0  0  0
  6  7  2  0  0  0  0
  6 24  1  0  0  0  0
  7 25  1  0  0  0  0
  8 26  1  0  0  0  0
  8 27  1  0  0  0  0
  8 28  1  0  0  0  0
  9 10  1  0  0  0  0
  9 29  1  0  0  0  0
 10 11  2  0  0  0  0
 10 12  2  0  0  0  0
 10 13  1  0  0  0  0
 13 14  2  0  0  0  0
 13 18  1  0  0  0  0
 14 15  1  0  0  0  0
 14 30  1  0  0  0  0
 15 16  2  0  0  0  0
 15 31  1  0  0  0  0
 16 17  1  0  0  0  0
 16 19  1  0  0  0  0
 17 18  2  0  0  0  0
 17 32  1  0  0  0  0
 18 33  1  0  0  0  0
M  END
