
 OpenBabel10072619433D

 23 24  0  0  1  0  0  0  0  0999 V2000
   -1.2519   -0.8207   -0.4364 C   0  0  0  0  0  0  0  0  0  0  0  0
   -1.4061    0.7158   -0.3890 C   0  0  0  0  0  0  0  0  0  0  0  0
   -0.1468    1.1504    0.3674 C   0  0  3  0  0  0  0  0  0  0  0  0
    0.0533    0.0106    1.3685 C   0  0  0  0  0  0  0  0  0  0  0  0
    0.0861   -1.0744    0.2933 C   0  0  3  0  0  0  0  0  0  0  0  0
    1.2652   -0.6162   -0.5921 C   0  0  0  0  0  0  0  0  0  0  0  0
    1.0026    0.8746   -0.5671 C   0  0  0  0  0  0  0  0  0  0  0  0
    1.5678    1.6891   -1.2829 O   0  0  0  0  0  0  0  0  0  0  0  0
   -0.1288    2.7523    1.0596 S   0  0  0  0  0  0  0  0  0  0  0  0
   -1.4226    2.9959    1.6574 O   0  0  0  0  0  0  0  0  0  0  0  0
    1.0937    2.9146    1.8117 O   0  0  0  0  0  0  0  0  0  0  0  0
   -0.0373    3.7596   -0.2669 N   0  0  0  0  0  0  0  0  0  0  0  0
   -1.2475   -1.2015   -1.4626 H   0  0  0  0  0  0  0  0  0  0  0  0
   -2.0806   -1.2947    0.1019 H   0  0  0  0  0  0  0  0  0  0  0  0
   -2.3257    0.9836    0.1425 H   0  0  0  0  0  0  0  0  0  0  0  0
   -1.4621    1.1414   -1.3971 H   0  0  0  0  0  0  0  0  0  0  0  0
   -0.7813   -0.0969    2.0703 H   0  0  0  0  0  0  0  0  0  0  0  0
    0.9905    0.0769    1.9331 H   0  0  0  0  0  0  0  0  0  0  0  0
    0.1945   -2.0965    0.6616 H   0  0  0  0  0  0  0  0  0  0  0  0
    1.2072   -1.0154   -1.6067 H   0  0  0  0  0  0  0  0  0  0  0  0
    2.2320   -0.8266   -0.1277 H   0  0  0  0  0  0  0  0  0  0  0  0
   -0.9257    3.9509   -0.7245 H   0  0  0  0  0  0  0  0  0  0  0  0
    0.7594    3.5535   -0.8816 H   0  0  0  0  0  0  0  0  0  0  0  0
  1  2  1  0  0  0  0
  1  5  1  0  0  0  0
  1 13  1  0  0  0  0
  1 14  1  0  0  0  0
  2  3  1  0  0  0  0
  2 15  1  0  0  0  0
  2 16  1  0  0  0  0
  3  4  1  0  0  0  0
  3  7  1  0  0  0  0
  3  9  1  0  0  0  0
  4  5  1  0  0  0  0
  4 17  1  0  0  0  0
  4 18  1  0  0  0  0
  5  6  1  0  0  0  0
  5 19  1  0  0  0  0
  6  7  1  0  0  0  0
  6 20  1  0  0  0  0
  6 21  1  0  0  0  0
  7  8  2  0  0  0  0
  9 10  2  0  0  0  0
  9 11  2  0  0  0  0
  9 12  1  0  0  0  0
 12 22  1  0  0  0  0
 12 23  1  0  0  0  0
M  END
