
 OpenBabel10072619503D

 39 42  0  0  0  0  0  0  0  0999 V2000
    0.9249   -0.7593    0.2352 C   0  0  0  0  0  0  0  0  0  0  0  0
    0.0157   -1.8065    0.0879 C   0  0  0  0  0  0  0  0  0  0  0  0
   -1.3364   -1.5348   -0.1316 C   0  0  0  0  0  0  0  0  0  0  0  0
   -1.7811   -0.2064   -0.2051 C   0  0  0  0  0  0  0  0  0  0  0  0
   -0.8635    0.8437   -0.0542 C   0  0  0  0  0  0  0  0  0  0  0  0
    0.4870    0.5630    0.1655 C   0  0  0  0  0  0  0  0  0  0  0  0
   -3.1553    0.0729   -0.4343 N   0  0  0  0  0  0  0  0  0  0  0  0
   -4.0645   -0.9175   -0.6013 N   0  0  0  0  0  0  0  0  0  0  0  0
   -5.2110   -0.2529   -0.7950 C   0  0  0  0  0  0  0  0  0  0  0  0
   -6.5042   -0.7651   -1.0300 C   0  0  0  0  0  0  0  0  0  0  0  0
   -7.5240    0.1910   -1.1967 C   0  0  0  0  0  0  0  0  0  0  0  0
   -7.2163    1.6017   -1.1245 C   0  0  0  0  0  0  0  0  0  0  0  0
   -5.9315    2.1394   -0.8950 C   0  0  0  0  0  0  0  0  0  0  0  0
   -4.9328    1.1730   -0.7309 C   0  0  0  0  0  0  0  0  0  0  0  0
   -3.6244    1.3432   -0.5025 N   0  0  0  0  0  0  0  0  0  0  0  0
   -8.4835    2.7787   -1.3249 Cl  0  0  0  0  0  0  0  0  0  0  0  0
   -8.8846   -0.1521   -1.4545 N   0  0  0  0  0  0  0  0  0  0  0  0
   -9.5717   -1.3401   -1.5548 C   0  0  0  0  0  0  0  0  0  0  0  0
   -9.0437   -2.9110   -1.3534 S   0  0  0  0  0  0  0  0  0  0  0  0
  -10.9163   -1.2178   -1.8687 N   0  0  0  0  0  0  0  0  0  0  0  0
  -11.6952   -0.0885   -2.0928 C   0  0  0  0  0  0  0  0  0  0  0  0
  -11.2212    1.0439   -2.0128 O   0  0  0  0  0  0  0  0  0  0  0  0
  -13.0939   -0.3353   -2.4178 C   0  0  0  0  0  0  0  0  0  0  0  0
  -14.0624    0.6205   -2.6671 C   0  0  0  0  0  0  0  0  0  0  0  0
  -15.3351    0.0498   -2.9559 C   0  0  0  0  0  0  0  0  0  0  0  0
  -15.3014   -1.3256   -2.9195 C   0  0  0  0  0  0  0  0  0  0  0  0
  -13.7446   -1.9180   -2.5380 S   0  0  0  0  0  0  0  0  0  0  0  0
    1.9772   -0.9742    0.4046 H   0  0  0  0  0  0  0  0  0  0  0  0
    0.3594   -2.8365    0.1430 H   0  0  0  0  0  0  0  0  0  0  0  0
   -2.0288   -2.3672   -0.2427 H   0  0  0  0  0  0  0  0  0  0  0  0
   -1.1835    1.8824   -0.1073 H   0  0  0  0  0  0  0  0  0  0  0  0
    1.1979    1.3775    0.2812 H   0  0  0  0  0  0  0  0  0  0  0  0
   -6.6272   -1.8324   -1.0756 H   0  0  0  0  0  0  0  0  0  0  0  0
   -5.7256    3.2003   -0.8487 H   0  0  0  0  0  0  0  0  0  0  0  0
   -9.4819    0.6724   -1.5827 H   0  0  0  0  0  0  0  0  0  0  0  0
  -11.3957   -2.1066   -1.9417 H   0  0  0  0  0  0  0  0  0  0  0  0
  -13.8596    1.6862   -2.6410 H   0  0  0  0  0  0  0  0  0  0  0  0
  -16.2284    0.6200   -3.1804 H   0  0  0  0  0  0  0  0  0  0  0  0
  -16.1176   -2.0127   -3.0985 H   0  0  0  0  0  0  0  0  0  0  0  0
  1  2  2  0  0  0  0
  1  6  1  0  0  0  0
  1 28  1  0  0  0  0
  2  3  1  0  0  0  0
  2 29  1  0  0  0  0
  3  4  2  0  0  0  0
  3 30  1  0  0  0  0
  4  5  1  0  0  0  0
  4  7  1  0  0  0  0
  5  6  2  0  0  0  0
  5 31  1  0  0  0  0
  6 32  1  0  0  0  0
  7  8  1  0  0  0  0
  7 15  1  0  0  0  0
  8  9  2  0  0  0  0
  9 10  1  0  0  0  0
  9 14  1  0  0  0  0
 10 11  2  0  0  0  0
 10 33  1  0  0  0  0
 11 12  1  0  0  0  0
 11 17  1  0  0  0  0
 12 13  2  0  0  0  0
 12 16  1  0  0  0  0
 13 14  1  0  0  0  0
 13 34  1  0  0  0  0
 14 15  2  0  0  0  0
 17 18  1  0  0  0  0
 17 35  1  0  0  0  0
 18 19  2  0  0  0  0
 18 20  1  0  0  0  0
 20 21  1  0  0  0  0
 20 36  1  0  0  0  0
 21 22  2  0  0  0  0
 21 23  1  0  0  0  0
 23 24  2  0  0  0  0
 23 27  1  0  0  0  0
 24 25  1  0  0  0  0
 24 37  1  0  0  0  0
 25 26  2  0  0  0  0
 25 38  1  0  0  0  0
 26 27  1  0  0  0  0
 26 39  1  0  0  0  0
M  END
