
 OpenBabel10072619593D

 45 47  0  0  0  0  0  0  0  0999 V2000
    2.0982    0.1097    1.3164 C   0  0  0  0  0  0  0  0  0  0  0  0
    2.1920    0.0899   -0.1021 O   0  0  0  0  0  0  0  0  0  0  0  0
    2.8624    1.1191   -0.7109 C   0  0  0  0  0  0  0  0  0  0  0  0
    3.0689    2.4202   -0.2281 C   0  0  0  0  0  0  0  0  0  0  0  0
    3.7772    3.3389   -1.0246 C   0  0  0  0  0  0  0  0  0  0  0  0
    4.2958    2.9935   -2.2868 C   0  0  0  0  0  0  0  0  0  0  0  0
    4.0567    1.6970   -2.7560 C   0  0  0  0  0  0  0  0  0  0  0  0
    3.3466    0.7773   -1.9788 C   0  0  0  0  0  0  0  0  0  0  0  0
    5.0800    3.9332   -3.1118 C   0  0  0  0  0  0  0  0  0  0  0  0
    5.4201    3.7376   -4.3745 N   0  0  0  0  0  0  0  0  0  0  0  0
    6.2190    4.7522   -4.8743 N   0  0  0  0  0  0  0  0  0  0  0  0
    6.4416    5.6902   -3.9822 C   0  0  0  0  0  0  0  0  0  0  0  0
    5.7147    5.4039   -2.4745 S   0  0  0  0  0  0  0  0  0  0  0  0
    7.2834    6.7513   -4.2090 N   0  0  0  0  0  0  0  0  0  0  0  0
    7.4075    7.8800   -3.4212 C   0  0  0  0  0  0  0  0  0  0  0  0
    6.6394    8.1965   -2.5239 O   0  0  0  0  0  0  0  0  0  0  0  0
    8.5372    8.5916   -3.7811 N   0  0  0  0  0  0  0  0  0  0  0  0
    9.0203    9.8125   -3.2556 C   0  0  0  0  0  0  0  0  0  0  0  0
    8.3164   10.6082   -2.3505 C   0  0  0  0  0  0  0  0  0  0  0  0
    8.8663   11.8108   -1.8986 C   0  0  0  0  0  0  0  0  0  0  0  0
   10.1114   12.2322   -2.3596 C   0  0  0  0  0  0  0  0  0  0  0  0
   10.8257   11.4434   -3.2622 C   0  0  0  0  0  0  0  0  0  0  0  0
   10.2943   10.2275   -3.7019 C   0  0  0  0  0  0  0  0  0  0  0  0
   10.9246    9.3589   -4.5648 O   0  0  0  0  0  0  0  0  0  0  0  0
   12.2766    9.6535   -4.8948 C   0  0  0  0  0  0  0  0  0  0  0  0
    2.5301    2.7544    0.9863 O   0  0  0  0  0  0  0  0  0  0  0  0
    2.9266    3.9874    1.5749 C   0  0  0  0  0  0  0  0  0  0  0  0
    1.2889    0.7692    1.6438 H   0  0  0  0  0  0  0  0  0  0  0  0
    3.0512    0.3683    1.7910 H   0  0  0  0  0  0  0  0  0  0  0  0
    1.8384   -0.9028    1.6417 H   0  0  0  0  0  0  0  0  0  0  0  0
    3.9199    4.3532   -0.6677 H   0  0  0  0  0  0  0  0  0  0  0  0
    4.4258    1.3837   -3.7316 H   0  0  0  0  0  0  0  0  0  0  0  0
    3.1763   -0.2270   -2.3600 H   0  0  0  0  0  0  0  0  0  0  0  0
    7.7018    6.7544   -5.1246 H   0  0  0  0  0  0  0  0  0  0  0  0
    9.1935    8.1424   -4.4084 H   0  0  0  0  0  0  0  0  0  0  0  0
    7.3358   10.3228   -1.9828 H   0  0  0  0  0  0  0  0  0  0  0  0
    8.3136   12.4210   -1.1892 H   0  0  0  0  0  0  0  0  0  0  0  0
   10.5260   13.1757   -2.0134 H   0  0  0  0  0  0  0  0  0  0  0  0
   11.7874   11.8083   -3.6051 H   0  0  0  0  0  0  0  0  0  0  0  0
   12.9055    9.7086   -3.9996 H   0  0  0  0  0  0  0  0  0  0  0  0
   12.3431   10.5721   -5.4859 H   0  0  0  0  0  0  0  0  0  0  0  0
   12.6516    8.8326   -5.5126 H   0  0  0  0  0  0  0  0  0  0  0  0
    2.4942    4.0325    2.5787 H   0  0  0  0  0  0  0  0  0  0  0  0
    2.5336    4.8369    1.0076 H   0  0  0  0  0  0  0  0  0  0  0  0
    4.0157    4.0468    1.6765 H   0  0  0  0  0  0  0  0  0  0  0  0
  1  2  1  0  0  0  0
  1 28  1  0  0  0  0
  1 29  1  0  0  0  0
  1 30  1  0  0  0  0
  2  3  1  0  0  0  0
  3  4  2  0  0  0  0
  3  8  1  0  0  0  0
  4  5  1  0  0  0  0
  4 26  1  0  0  0  0
  5  6  2  0  0  0  0
  5 31  1  0  0  0  0
  6  7  1  0  0  0  0
  6  9  1  0  0  0  0
  7  8  2  0  0  0  0
  7 32  1  0  0  0  0
  8 33  1  0  0  0  0
  9 10  2  0  0  0  0
  9 13  1  0  0  0  0
 10 11  1  0  0  0  0
 11 12  2  0  0  0  0
 12 13  1  0  0  0  0
 12 14  1  0  0  0  0
 14 15  1  0  0  0  0
 14 34  1  0  0  0  0
 15 16  2  0  0  0  0
 15 17  1  0  0  0  0
 17 18  1  0  0  0  0
 17 35  1  0  0  0  0
 18 19  2  0  0  0  0
 18 23  1  0  0  0  0
 19 20  1  0  0  0  0
 19 36  1  0  0  0  0
 20 21  2  0  0  0  0
 20 37  1  0  0  0  0
 21 22  1  0  0  0  0
 21 38  1  0  0  0  0
 22 23  2  0  0  0  0
 22 39  1  0  0  0  0
 23 24  1  0  0  0  0
 24 25  1  0  0  0  0
 25 40  1  0  0  0  0
 25 41  1  0  0  0  0
 25 42  1  0  0  0  0
 26 27  1  0  0  0  0
 27 43  1  0  0  0  0
 27 44  1  0  0  0  0
 27 45  1  0  0  0  0
M  END
