
 OpenBabel10072619543D

 49 49  0  0  0  0  0  0  0  0999 V2000
    0.9650    0.0311   -0.0608 C   0  0  0  0  0  0  0  0  0  0  0  0
    2.4846   -0.0161   -0.0646 C   0  0  0  0  0  0  0  0  0  0  0  0
    3.0127   -1.1256    0.8444 C   0  0  0  0  0  0  0  0  0  0  0  0
    4.5415   -1.1689    0.8375 C   0  0  0  0  0  0  0  0  0  0  0  0
    5.0713   -2.2792    1.7462 C   0  0  0  0  0  0  0  0  0  0  0  0
    6.6001   -2.3202    1.7388 C   0  0  0  0  0  0  0  0  0  0  0  0
    7.1324   -3.4296    2.6470 C   0  0  0  0  0  0  0  0  0  0  0  0
    8.6612   -3.4689    2.6373 C   0  0  0  0  0  0  0  0  0  0  0  0
    9.1960   -4.5784    3.5441 C   0  0  0  0  0  0  0  0  0  0  0  0
   10.7250   -4.6141    3.5341 C   0  0  0  0  0  0  0  0  0  0  0  0
   11.2621   -5.7225    4.4388 C   0  0  0  0  0  0  0  0  0  0  0  0
   12.7857   -5.7506    4.4269 C   0  0  0  0  0  0  0  0  0  0  0  0
   13.2617   -6.8408    5.3167 N   0  3  0  0  0  0  0  0  0  0  0  0
   13.4988   -6.5822    6.6245 C   0  0  0  0  0  0  0  0  0  0  0  0
   13.9510   -7.5853    7.4747 C   0  0  0  0  0  0  0  0  0  0  0  0
   14.1608   -8.8654    6.9688 C   0  0  0  0  0  0  0  0  0  0  0  0
   13.9120   -9.1146    5.6217 C   0  0  0  0  0  0  0  0  0  0  0  0
   13.4606   -8.0804    4.8093 C   0  0  0  0  0  0  0  0  0  0  0  0
   14.6279   -9.9157    7.8259 C   0  0  0  0  0  0  0  0  0  0  0  0
   15.0055  -10.7637    8.5181 N   0  0  0  0  0  0  0  0  0  0  0  0
    0.6087    0.8303   -0.7183 H   0  0  0  0  0  0  0  0  0  0  0  0
    0.5810    0.2232    0.9462 H   0  0  0  0  0  0  0  0  0  0  0  0
    0.5423   -0.9144   -0.4154 H   0  0  0  0  0  0  0  0  0  0  0  0
    2.8754    0.9535    0.2654 H   0  0  0  0  0  0  0  0  0  0  0  0
    2.8368   -0.1757   -1.0904 H   0  0  0  0  0  0  0  0  0  0  0  0
    2.6160   -2.0928    0.5123 H   0  0  0  0  0  0  0  0  0  0  0  0
    2.6542   -0.9637    1.8682 H   0  0  0  0  0  0  0  0  0  0  0  0
    4.9376   -0.2016    1.1701 H   0  0  0  0  0  0  0  0  0  0  0  0
    4.8999   -1.3300   -0.1865 H   0  0  0  0  0  0  0  0  0  0  0  0
    4.6761   -3.2466    1.4133 H   0  0  0  0  0  0  0  0  0  0  0  0
    4.7128   -2.1183    2.7702 H   0  0  0  0  0  0  0  0  0  0  0  0
    6.9951   -1.3524    2.0711 H   0  0  0  0  0  0  0  0  0  0  0  0
    6.9580   -2.4808    0.7145 H   0  0  0  0  0  0  0  0  0  0  0  0
    6.7374   -4.3975    2.3150 H   0  0  0  0  0  0  0  0  0  0  0  0
    6.7755   -3.2689    3.6716 H   0  0  0  0  0  0  0  0  0  0  0  0
    9.0556   -2.5009    2.9698 H   0  0  0  0  0  0  0  0  0  0  0  0
    9.0179   -3.6285    1.6125 H   0  0  0  0  0  0  0  0  0  0  0  0
    8.8034   -5.5467    3.2108 H   0  0  0  0  0  0  0  0  0  0  0  0
    8.8389   -4.4199    4.5689 H   0  0  0  0  0  0  0  0  0  0  0  0
   11.1169   -3.6456    3.8678 H   0  0  0  0  0  0  0  0  0  0  0  0
   11.0824   -4.7718    2.5092 H   0  0  0  0  0  0  0  0  0  0  0  0
   10.8708   -6.6926    4.1091 H   0  0  0  0  0  0  0  0  0  0  0  0
   10.9020   -5.5718    5.4638 H   0  0  0  0  0  0  0  0  0  0  0  0
   13.2148   -4.8096    4.7891 H   0  0  0  0  0  0  0  0  0  0  0  0
   13.1830   -5.9378    3.4230 H   0  0  0  0  0  0  0  0  0  0  0  0
   13.3197   -5.5704    6.9794 H   0  0  0  0  0  0  0  0  0  0  0  0
   14.1366   -7.3632    8.5251 H   0  0  0  0  0  0  0  0  0  0  0  0
   14.0667  -10.1073    5.2000 H   0  0  0  0  0  0  0  0  0  0  0  0
   13.2519   -8.2330    3.7534 H   0  0  0  0  0  0  0  0  0  0  0  0
  1  2  1  0  0  0  0
  1 21  1  0  0  0  0
  1 22  1  0  0  0  0
  1 23  1  0  0  0  0
  2  3  1  0  0  0  0
  2 24  1  0  0  0  0
  2 25  1  0  0  0  0
  3  4  1  0  0  0  0
  3 26  1  0  0  0  0
  3 27  1  0  0  0  0
  4  5  1  0  0  0  0
  4 28  1  0  0  0  0
  4 29  1  0  0  0  0
  5  6  1  0  0  0  0
  5 30  1  0  0  0  0
  5 31  1  0  0  0  0
  6  7  1  0  0  0  0
  6 32  1  0  0  0  0
  6 33  1  0  0  0  0
  7  8  1  0  0  0  0
  7 34  1  0  0  0  0
  7 35  1  0  0  0  0
  8  9  1  0  0  0  0
  8 36  1  0  0  0  0
  8 37  1  0  0  0  0
  9 10  1  0  0  0  0
  9 38  1  0  0  0  0
  9 39  1  0  0  0  0
 10 11  1  0  0  0  0
 10 40  1  0  0  0  0
 10 41  1  0  0  0  0
 11 12  1  0  0  0  0
 11 42  1  0  0  0  0
 11 43  1  0  0  0  0
 12 13  1  0  0  0  0
 12 44  1  0  0  0  0
 12 45  1  0  0  0  0
 13 14  2  0  0  0  0
 13 18  1  0  0  0  0
 14 15  1  0  0  0  0
 14 46  1  0  0  0  0
 15 16  2  0  0  0  0
 15 47  1  0  0  0  0
 16 17  1  0  0  0  0
 16 19  1  0  0  0  0
 17 18  2  0  0  0  0
 17 48  1  0  0  0  0
 18 49  1  0  0  0  0
 19 20  3  0  0  0  0
M  CHG  1  13   1
M  END
