
 OpenBabel10072620083D

 35 34  0  0  0  0  0  0  0  0999 V2000
    2.1730   -1.2385    2.1939 C   0  0  0  0  0  0  0  0  0  0  0  0
    2.4536   -0.5120    1.0066 O   0  0  0  0  0  0  0  0  0  0  0  0
    2.9353    0.7283    1.3331 N   0  0  0  0  0  0  0  0  0  0  0  0
    4.3805    0.9331    1.5069 C   0  0  0  0  0  0  0  0  0  0  0  0
    5.1831   -0.0404    1.3542 O   0  0  0  0  0  0  0  0  0  0  0  0
    4.8974    2.2639    1.8573 N   0  0  0  0  0  0  0  0  0  0  0  0
    6.6474    2.5119    2.0677 P   0  0  0  0  0  0  0  0  0  0  0  0
    6.6366    3.5574    0.9257 O   0  0  0  0  0  0  0  0  0  0  0  0
    6.3721    3.0275    3.7490 N   0  0  0  0  0  0  0  0  0  0  0  0
    5.7400    2.1078    4.7058 C   0  0  0  0  0  0  0  0  0  0  0  0
    5.3900    0.9444    4.3325 O   0  0  0  0  0  0  0  0  0  0  0  0
    5.5127    2.5336    6.0943 N   0  0  0  0  0  0  0  0  0  0  0  0
    4.9235    1.6764    6.9859 O   0  0  0  0  0  0  0  0  0  0  0  0
    5.9251    0.9079    7.6361 C   0  0  0  0  0  0  0  0  0  0  0  0
    8.3974    2.7599    2.2782 N   0  0  0  0  0  0  0  0  0  0  0  0
    9.3465    2.1210    1.3552 C   0  0  0  0  0  0  0  0  0  0  0  0
    8.9176    1.3916    0.4070 O   0  0  0  0  0  0  0  0  0  0  0  0
   10.7918    2.3258    1.5290 N   0  0  0  0  0  0  0  0  0  0  0  0
   11.6763    1.7304    0.6688 O   0  0  0  0  0  0  0  0  0  0  0  0
   11.9262    2.5969   -0.4280 C   0  0  0  0  0  0  0  0  0  0  0  0
    1.7968   -2.2071    1.9389 H   0  0  0  0  0  0  0  0  0  0  0  0
    1.4409   -0.7118    2.7698 H   0  0  0  0  0  0  0  0  0  0  0  0
    3.0699   -1.3439    2.7679 H   0  0  0  0  0  0  0  0  0  0  0  0
    2.3135    1.4824    1.4514 H   0  0  0  0  0  0  0  0  0  0  0  0
    4.2756    3.0180    1.9756 H   0  0  0  0  0  0  0  0  0  0  0  0
    6.6432    3.9287    4.0382 H   0  0  0  0  0  0  0  0  0  0  0  0
    5.7838    3.4348    6.3834 H   0  0  0  0  0  0  0  0  0  0  0  0
    5.4650    0.2384    8.3325 H   0  0  0  0  0  0  0  0  0  0  0  0
    6.5934    1.5609    8.1575 H   0  0  0  0  0  0  0  0  0  0  0  0
    6.4716    0.3453    6.9083 H   0  0  0  0  0  0  0  0  0  0  0  0
    8.7297    3.3250    3.0127 H   0  0  0  0  0  0  0  0  0  0  0  0
   11.1241    2.8909    2.2635 H   0  0  0  0  0  0  0  0  0  0  0  0
   12.6170    2.1319   -1.0998 H   0  0  0  0  0  0  0  0  0  0  0  0
   12.3410    3.5157   -0.0694 H   0  0  0  0  0  0  0  0  0  0  0  0
   11.0087    2.7962   -0.9413 H   0  0  0  0  0  0  0  0  0  0  0  0
  1  2  1  0  0  0  0
  1 21  1  0  0  0  0
  1 22  1  0  0  0  0
  1 23  1  0  0  0  0
  2  3  1  0  0  0  0
  3  4  1  0  0  0  0
  3 24  1  0  0  0  0
  4  5  2  0  0  0  0
  4  6  1  0  0  0  0
  6  7  1  0  0  0  0
  6 25  1  0  0  0  0
  7  8  2  0  0  0  0
  7  9  1  0  0  0  0
  7 15  1  0  0  0  0
  9 10  1  0  0  0  0
  9 26  1  0  0  0  0
 10 11  2  0  0  0  0
 10 12  1  0  0  0  0
 12 13  1  0  0  0  0
 12 27  1  0  0  0  0
 13 14  1  0  0  0  0
 14 28  1  0  0  0  0
 14 29  1  0  0  0  0
 14 30  1  0  0  0  0
 15 16  1  0  0  0  0
 15 31  1  0  0  0  0
 16 17  2  0  0  0  0
 16 18  1  0  0  0  0
 18 19  1  0  0  0  0
 18 32  1  0  0  0  0
 19 20  1  0  0  0  0
 20 33  1  0  0  0  0
 20 34  1  0  0  0  0
 20 35  1  0  0  0  0
M  END
