
 OpenBabel10072620183D

 53 56  0  0  0  0  0  0  0  0999 V2000
    2.6553   -0.3540   -0.3781 C   0  0  0  0  0  0  0  0  0  0  0  0
    1.1721   -0.1418   -0.3062 C   0  0  0  0  0  0  0  0  0  0  0  0
    0.4573   -0.5566    0.8214 C   0  0  0  0  0  0  0  0  0  0  0  0
   -0.9289   -0.3938    0.8779 C   0  0  0  0  0  0  0  0  0  0  0  0
   -1.6293    0.1709   -0.1925 C   0  0  0  0  0  0  0  0  0  0  0  0
   -0.9116    0.6066   -1.3088 C   0  0  0  0  0  0  0  0  0  0  0  0
    0.4760    0.4408   -1.3710 C   0  0  0  0  0  0  0  0  0  0  0  0
   -3.0546    0.2512   -0.1388 N   0  0  0  0  0  0  0  0  0  0  0  0
   -3.7545   -1.0436   -0.0341 C   0  0  0  0  0  0  0  0  0  0  0  0
   -4.3728   -1.2278    1.3089 C   0  0  0  0  0  0  0  0  0  0  0  0
   -5.4090   -0.5390    1.7468 N   0  0  0  0  0  0  0  0  0  0  0  0
   -5.7231   -0.9844    2.9955 N   0  0  0  0  0  0  0  0  0  0  0  0
   -4.8888   -1.9518    3.3156 C   0  0  0  0  0  0  0  0  0  0  0  0
   -4.0217   -2.1522    2.2660 N   0  0  0  0  0  0  0  0  0  0  0  0
   -2.9716   -3.1492    2.1835 C   0  0  0  0  0  0  0  0  0  0  0  0
   -2.2139   -3.3638    3.4898 C   0  0  0  0  0  0  0  0  0  0  0  0
   -2.9322   -4.2992    4.4620 C   0  0  0  0  0  0  0  0  0  0  0  0
   -4.4483   -4.1223    4.5470 C   0  0  0  0  0  0  0  0  0  0  0  0
   -4.8890   -2.6673    4.6246 C   0  0  0  0  0  0  0  0  0  0  0  0
   -3.7091    1.4436   -0.5103 C   0  0  0  0  0  0  0  0  0  0  0  0
   -3.1132    2.4304   -0.9394 O   0  0  0  0  0  0  0  0  0  0  0  0
   -5.0765    1.4260   -0.2921 N   0  0  0  0  0  0  0  0  0  0  0  0
   -6.0060    2.4379   -0.6108 C   0  0  0  0  0  0  0  0  0  0  0  0
   -5.7460    3.4861   -1.4966 C   0  0  0  0  0  0  0  0  0  0  0  0
   -6.7104    4.4759   -1.7244 C   0  0  0  0  0  0  0  0  0  0  0  0
   -7.9493    4.4140   -1.0765 C   0  0  0  0  0  0  0  0  0  0  0  0
   -8.2255    3.3513   -0.2131 C   0  0  0  0  0  0  0  0  0  0  0  0
   -7.2598    2.3657    0.0110 C   0  0  0  0  0  0  0  0  0  0  0  0
   -9.1669    5.6227   -1.2856 Cl  0  0  0  0  0  0  0  0  0  0  0  0
   -6.3037    5.7576   -2.8141 Cl  0  0  0  0  0  0  0  0  0  0  0  0
    3.1288   -0.1001    0.5759 H   0  0  0  0  0  0  0  0  0  0  0  0
    3.1135    0.2764   -1.1466 H   0  0  0  0  0  0  0  0  0  0  0  0
    2.8720   -1.4004   -0.6144 H   0  0  0  0  0  0  0  0  0  0  0  0
    0.9792   -0.9885    1.6725 H   0  0  0  0  0  0  0  0  0  0  0  0
   -1.4476   -0.6576    1.7931 H   0  0  0  0  0  0  0  0  0  0  0  0
   -1.4228    1.0615   -2.1532 H   0  0  0  0  0  0  0  0  0  0  0  0
    1.0062    0.7767   -2.2597 H   0  0  0  0  0  0  0  0  0  0  0  0
   -3.0848   -1.8653   -0.3078 H   0  0  0  0  0  0  0  0  0  0  0  0
   -4.5525   -1.0598   -0.7871 H   0  0  0  0  0  0  0  0  0  0  0  0
   -2.2551   -2.8199    1.4295 H   0  0  0  0  0  0  0  0  0  0  0  0
   -3.4229   -4.0769    1.8163 H   0  0  0  0  0  0  0  0  0  0  0  0
   -2.0176   -2.4006    3.9778 H   0  0  0  0  0  0  0  0  0  0  0  0
   -1.2318   -3.7987    3.2670 H   0  0  0  0  0  0  0  0  0  0  0  0
   -2.4937   -4.1646    5.4591 H   0  0  0  0  0  0  0  0  0  0  0  0
   -2.7274   -5.3384    4.1763 H   0  0  0  0  0  0  0  0  0  0  0  0
   -4.7959   -4.6498    5.4439 H   0  0  0  0  0  0  0  0  0  0  0  0
   -4.9308   -4.6206    3.6970 H   0  0  0  0  0  0  0  0  0  0  0  0
   -4.2744   -2.1140    5.3441 H   0  0  0  0  0  0  0  0  0  0  0  0
   -5.9160   -2.6465    5.0104 H   0  0  0  0  0  0  0  0  0  0  0  0
   -5.3833    0.7879    0.4373 H   0  0  0  0  0  0  0  0  0  0  0  0
   -4.7946    3.5588   -2.0156 H   0  0  0  0  0  0  0  0  0  0  0  0
   -9.1836    3.2897    0.2985 H   0  0  0  0  0  0  0  0  0  0  0  0
   -7.4912    1.5503    0.6964 H   0  0  0  0  0  0  0  0  0  0  0  0
  1  2  1  0  0  0  0
  1 31  1  0  0  0  0
  1 32  1  0  0  0  0
  1 33  1  0  0  0  0
  2  3  2  0  0  0  0
  2  7  1  0  0  0  0
  3  4  1  0  0  0  0
  3 34  1  0  0  0  0
  4  5  2  0  0  0  0
  4 35  1  0  0  0  0
  5  6  1  0  0  0  0
  5  8  1  0  0  0  0
  6  7  2  0  0  0  0
  6 36  1  0  0  0  0
  7 37  1  0  0  0  0
  8  9  1  0  0  0  0
  8 20  1  0  0  0  0
  9 10  1  0  0  0  0
  9 38  1  0  0  0  0
  9 39  1  0  0  0  0
 10 11  2  0  0  0  0
 10 14  1  0  0  0  0
 11 12  1  0  0  0  0
 12 13  2  0  0  0  0
 13 14  1  0  0  0  0
 13 19  1  0  0  0  0
 14 15  1  0  0  0  0
 15 16  1  0  0  0  0
 15 40  1  0  0  0  0
 15 41  1  0  0  0  0
 16 17  1  0  0  0  0
 16 42  1  0  0  0  0
 16 43  1  0  0  0  0
 17 18  1  0  0  0  0
 17 44  1  0  0  0  0
 17 45  1  0  0  0  0
 18 19  1  0  0  0  0
 18 46  1  0  0  0  0
 18 47  1  0  0  0  0
 19 48  1  0  0  0  0
 19 49  1  0  0  0  0
 20 21  2  0  0  0  0
 20 22  1  0  0  0  0
 22 23  1  0  0  0  0
 22 50  1  0  0  0  0
 23 24  2  0  0  0  0
 23 28  1  0  0  0  0
 24 25  1  0  0  0  0
 24 51  1  0  0  0  0
 25 26  2  0  0  0  0
 25 30  1  0  0  0  0
 26 27  1  0  0  0  0
 26 29  1  0  0  0  0
 27 28  2  0  0  0  0
 27 52  1  0  0  0  0
 28 53  1  0  0  0  0
M  END
