
 OpenBabel10072619573D

 25 25  0  0  0  0  0  0  0  0999 V2000
    1.0752    0.5693    0.2009 C   0  0  0  0  0  0  0  0  0  0  0  0
    2.1796   -0.2128   -0.2372 O   0  0  0  0  0  0  0  0  0  0  0  0
    2.9171    0.2725   -1.2858 C   0  0  0  0  0  0  0  0  0  0  0  0
    2.5937    1.4173   -2.0226 C   0  0  0  0  0  0  0  0  0  0  0  0
    3.3954    1.8221   -3.0930 C   0  0  0  0  0  0  0  0  0  0  0  0
    4.5213    1.0835   -3.4419 C   0  0  0  0  0  0  0  0  0  0  0  0
    4.8519   -0.0584   -2.7156 C   0  0  0  0  0  0  0  0  0  0  0  0
    4.0643   -0.4693   -1.6262 C   0  0  0  0  0  0  0  0  0  0  0  0
    4.4496   -1.7196   -0.8761 C   0  0  0  0  0  0  0  0  0  0  0  0
    3.7297   -2.8660   -1.3816 N   0  0  0  0  0  0  0  0  0  0  0  0
    4.1135   -4.1196   -1.0185 C   0  0  0  0  0  0  0  0  0  0  0  0
    5.1071   -4.4081   -0.3702 O   0  0  0  0  0  0  0  0  0  0  0  0
    3.2581   -5.0676   -1.4778 N   0  0  0  0  0  0  0  0  0  0  0  0
    0.6388    0.0723    1.0726 H   0  0  0  0  0  0  0  0  0  0  0  0
    0.3019    0.6238   -0.5723 H   0  0  0  0  0  0  0  0  0  0  0  0
    1.3951    1.5689    0.5139 H   0  0  0  0  0  0  0  0  0  0  0  0
    1.7186    2.0169   -1.7948 H   0  0  0  0  0  0  0  0  0  0  0  0
    3.1355    2.7135   -3.6583 H   0  0  0  0  0  0  0  0  0  0  0  0
    5.1406    1.3940   -4.2793 H   0  0  0  0  0  0  0  0  0  0  0  0
    5.7305   -0.6341   -3.0010 H   0  0  0  0  0  0  0  0  0  0  0  0
    4.2417   -1.6207    0.1958 H   0  0  0  0  0  0  0  0  0  0  0  0
    5.5275   -1.9042   -0.9625 H   0  0  0  0  0  0  0  0  0  0  0  0
    2.7320   -2.7415   -1.4691 H   0  0  0  0  0  0  0  0  0  0  0  0
    2.8627   -4.8986   -2.3913 H   0  0  0  0  0  0  0  0  0  0  0  0
    3.5962   -6.0101   -1.3296 H   0  0  0  0  0  0  0  0  0  0  0  0
  1  2  1  0  0  0  0
  1 14  1  0  0  0  0
  1 15  1  0  0  0  0
  1 16  1  0  0  0  0
  2  3  1  0  0  0  0
  3  4  2  0  0  0  0
  3  8  1  0  0  0  0
  4  5  1  0  0  0  0
  4 17  1  0  0  0  0
  5  6  2  0  0  0  0
  5 18  1  0  0  0  0
  6  7  1  0  0  0  0
  6 19  1  0  0  0  0
  7  8  2  0  0  0  0
  7 20  1  0  0  0  0
  8  9  1  0  0  0  0
  9 10  1  0  0  0  0
  9 21  1  0  0  0  0
  9 22  1  0  0  0  0
 10 11  1  0  0  0  0
 10 23  1  0  0  0  0
 11 12  2  0  0  0  0
 11 13  1  0  0  0  0
 13 24  1  0  0  0  0
 13 25  1  0  0  0  0
M  END
