
 OpenBabel10072619573D

 45 47  0  0  0  0  0  0  0  0999 V2000
   -0.6427   -0.8254    0.0653 C   0  0  0  0  0  0  0  0  0  0  0  0
    0.6526   -0.5128    0.8151 C   0  0  0  0  0  0  0  0  0  0  0  0
    1.3433    0.4175   -0.0903 N   0  0  0  0  0  0  0  0  0  0  0  0
    0.2197    1.5799   -0.6555 S   0  0  0  0  0  0  0  0  0  0  0  0
    0.1078    2.6267    0.3393 O   0  0  0  0  0  0  0  0  0  0  0  0
    0.4654    1.8465   -2.0517 O   0  0  0  0  0  0  0  0  0  0  0  0
   -1.1923    0.5008   -0.4560 C   0  0  0  0  0  0  0  0  0  0  0  0
    2.6562    0.8966    0.2357 C   0  0  0  0  0  0  0  0  0  0  0  0
    3.7060    0.7185   -0.6809 C   0  0  0  0  0  0  0  0  0  0  0  0
    4.9838    1.2012   -0.3913 C   0  0  0  0  0  0  0  0  0  0  0  0
    5.2210    1.8648    0.8134 C   0  0  0  0  0  0  0  0  0  0  0  0
    4.1797    2.0433    1.7261 C   0  0  0  0  0  0  0  0  0  0  0  0
    2.8951    1.5829    1.4327 C   0  0  0  0  0  0  0  0  0  0  0  0
    4.4192    2.7719    2.9332 N   0  0  0  0  0  0  0  0  0  0  0  0
    4.0719    4.4372    2.8869 S   0  0  0  0  0  0  0  0  0  0  0  0
    5.2803    5.0826    3.3553 O   0  0  0  0  0  0  0  0  0  0  0  0
    3.4820    4.7842    1.6147 O   0  0  0  0  0  0  0  0  0  0  0  0
    2.8230    4.5822    4.1591 C   0  0  0  0  0  0  0  0  0  0  0  0
    3.3794    4.2424    5.5338 C   0  0  0  0  0  0  0  0  0  0  0  0
    2.3649    4.4792    6.6243 C   0  0  0  0  0  0  0  0  0  0  0  0
    1.3945    3.5125    6.9172 C   0  0  0  0  0  0  0  0  0  0  0  0
    0.4489    3.7433    7.9175 C   0  0  0  0  0  0  0  0  0  0  0  0
    0.4629    4.9410    8.6304 C   0  0  0  0  0  0  0  0  0  0  0  0
    1.4261    5.9073    8.3488 C   0  0  0  0  0  0  0  0  0  0  0  0
    2.3717    5.6796    7.3484 C   0  0  0  0  0  0  0  0  0  0  0  0
    3.4781   -0.1255   -2.1722 Cl  0  0  0  0  0  0  0  0  0  0  0  0
   -1.3689   -1.3463    0.6955 H   0  0  0  0  0  0  0  0  0  0  0  0
   -0.4192   -1.4799   -0.7873 H   0  0  0  0  0  0  0  0  0  0  0  0
    1.2379   -1.4248    0.9648 H   0  0  0  0  0  0  0  0  0  0  0  0
    0.4502   -0.0509    1.7877 H   0  0  0  0  0  0  0  0  0  0  0  0
   -1.7003    0.3811   -1.4151 H   0  0  0  0  0  0  0  0  0  0  0  0
   -1.8661    0.9599    0.2725 H   0  0  0  0  0  0  0  0  0  0  0  0
    5.7940    1.0696   -1.1045 H   0  0  0  0  0  0  0  0  0  0  0  0
    6.2157    2.2529    1.0158 H   0  0  0  0  0  0  0  0  0  0  0  0
    2.0830    1.7730    2.1267 H   0  0  0  0  0  0  0  0  0  0  0  0
    5.3767    2.6761    3.2830 H   0  0  0  0  0  0  0  0  0  0  0  0
    1.9788    3.9427    3.8781 H   0  0  0  0  0  0  0  0  0  0  0  0
    2.4760    5.6210    4.1267 H   0  0  0  0  0  0  0  0  0  0  0  0
    4.2749    4.8408    5.7453 H   0  0  0  0  0  0  0  0  0  0  0  0
    3.7100    3.1971    5.5705 H   0  0  0  0  0  0  0  0  0  0  0  0
    1.3694    2.5731    6.3702 H   0  0  0  0  0  0  0  0  0  0  0  0
   -0.3006    2.9889    8.1412 H   0  0  0  0  0  0  0  0  0  0  0  0
   -0.2748    5.1203    9.4079 H   0  0  0  0  0  0  0  0  0  0  0  0
    1.4407    6.8395    8.9077 H   0  0  0  0  0  0  0  0  0  0  0  0
    3.1153    6.4463    7.1400 H   0  0  0  0  0  0  0  0  0  0  0  0
  1  2  1  0  0  0  0
  1  7  1  0  0  0  0
  1 27  1  0  0  0  0
  1 28  1  0  0  0  0
  2  3  1  0  0  0  0
  2 29  1  0  0  0  0
  2 30  1  0  0  0  0
  3  4  1  0  0  0  0
  3  8  1  0  0  0  0
  4  5  2  0  0  0  0
  4  6  2  0  0  0  0
  4  7  1  0  0  0  0
  7 31  1  0  0  0  0
  7 32  1  0  0  0  0
  8  9  2  0  0  0  0
  8 13  1  0  0  0  0
  9 10  1  0  0  0  0
  9 26  1  0  0  0  0
 10 11  2  0  0  0  0
 10 33  1  0  0  0  0
 11 12  1  0  0  0  0
 11 34  1  0  0  0  0
 12 13  2  0  0  0  0
 12 14  1  0  0  0  0
 13 35  1  0  0  0  0
 14 15  1  0  0  0  0
 14 36  1  0  0  0  0
 15 16  2  0  0  0  0
 15 17  2  0  0  0  0
 15 18  1  0  0  0  0
 18 19  1  0  0  0  0
 18 37  1  0  0  0  0
 18 38  1  0  0  0  0
 19 20  1  0  0  0  0
 19 39  1  0  0  0  0
 19 40  1  0  0  0  0
 20 21  2  0  0  0  0
 20 25  1  0  0  0  0
 21 22  1  0  0  0  0
 21 41  1  0  0  0  0
 22 23  2  0  0  0  0
 22 42  1  0  0  0  0
 23 24  1  0  0  0  0
 23 43  1  0  0  0  0
 24 25  2  0  0  0  0
 24 44  1  0  0  0  0
 25 45  1  0  0  0  0
M  END
