
 OpenBabel10072620073D

 47 51  0  0  0  0  0  0  0  0999 V2000
    0.7022    2.3233   -1.9351 C   0  0  0  0  0  0  0  0  0  0  0  0
   -0.1307    1.1486   -1.5093 C   0  0  0  0  0  0  0  0  0  0  0  0
    0.3920   -0.1483   -1.4414 C   0  0  0  0  0  0  0  0  0  0  0  0
   -0.4006   -1.2148   -1.0012 C   0  0  0  0  0  0  0  0  0  0  0  0
   -1.7425   -1.0231   -0.6405 C   0  0  0  0  0  0  0  0  0  0  0  0
   -2.2478    0.2789   -0.6720 C   0  0  0  0  0  0  0  0  0  0  0  0
   -1.4589    1.3493   -1.1106 C   0  0  0  0  0  0  0  0  0  0  0  0
   -2.4636   -2.1127   -0.1080 N   0  0  0  0  0  0  0  0  0  0  0  0
   -3.8701   -2.2838    0.0106 C   0  0  0  0  0  0  0  0  0  0  0  0
   -4.7399   -1.5410   -0.7047 N   0  0  0  0  0  0  0  0  0  0  0  0
   -6.0505   -1.8420   -0.5862 C   0  0  0  0  0  0  0  0  0  0  0  0
   -6.9848   -1.1188   -1.3175 C   0  0  0  0  0  0  0  0  0  0  0  0
   -8.3476   -1.4154   -1.2531 C   0  0  0  0  0  0  0  0  0  0  0  0
   -8.7863   -2.4506   -0.4383 C   0  0  0  0  0  0  0  0  0  0  0  0
   -7.8616   -3.1758    0.3137 C   0  0  0  0  0  0  0  0  0  0  0  0
   -6.5036   -2.8899    0.2598 C   0  0  0  0  0  0  0  0  0  0  0  0
   -5.6533   -3.6141    1.0078 N   0  0  0  0  0  0  0  0  0  0  0  0
   -4.3560   -3.2767    0.8867 C   0  0  0  0  0  0  0  0  0  0  0  0
   -3.4671   -4.0550    1.6656 N   0  0  0  0  0  0  0  0  0  0  0  0
   -3.0869   -5.5523    1.0257 S   0  0  0  0  0  0  0  0  0  0  0  0
   -3.4597   -5.5768   -0.3748 O   0  0  0  0  0  0  0  0  0  0  0  0
   -1.7170   -5.8278    1.4001 O   0  0  0  0  0  0  0  0  0  0  0  0
   -4.1216   -6.6441    1.9178 C   0  0  0  0  0  0  0  0  0  0  0  0
   -5.0793   -7.4433    1.2586 C   0  0  0  0  0  0  0  0  0  0  0  0
   -5.9182   -8.3530    1.9439 C   0  0  0  0  0  0  0  0  0  0  0  0
   -5.8720   -8.5380    3.3368 C   0  0  0  0  0  0  0  0  0  0  0  0
   -4.9294   -7.7522    4.0444 C   0  0  0  0  0  0  0  0  0  0  0  0
   -4.7312   -7.7773    5.3708 N   0  0  0  0  0  0  0  0  0  0  0  0
   -3.5198   -6.6881    5.6871 S   0  0  0  0  0  0  0  0  0  0  0  0
   -3.2072   -6.1231    4.1605 N   0  0  0  0  0  0  0  0  0  0  0  0
   -4.0288   -6.7775    3.3218 C   0  0  0  0  0  0  0  0  0  0  0  0
    2.0321   -0.4869   -1.8704 Cl  0  0  0  0  0  0  0  0  0  0  0  0
    1.4504    2.5485   -1.1681 H   0  0  0  0  0  0  0  0  0  0  0  0
    0.0855    3.2170   -2.0771 H   0  0  0  0  0  0  0  0  0  0  0  0
    1.2021    2.1248   -2.8887 H   0  0  0  0  0  0  0  0  0  0  0  0
    0.0409   -2.2066   -0.9343 H   0  0  0  0  0  0  0  0  0  0  0  0
   -3.2648    0.4849   -0.3468 H   0  0  0  0  0  0  0  0  0  0  0  0
   -1.8930    2.3470   -1.1258 H   0  0  0  0  0  0  0  0  0  0  0  0
   -2.0616   -3.0020   -0.4012 H   0  0  0  0  0  0  0  0  0  0  0  0
   -6.6427   -0.3101   -1.9592 H   0  0  0  0  0  0  0  0  0  0  0  0
   -9.0588   -0.8408   -1.8419 H   0  0  0  0  0  0  0  0  0  0  0  0
   -9.8441   -2.6957   -0.3830 H   0  0  0  0  0  0  0  0  0  0  0  0
   -8.2058   -3.9836    0.9548 H   0  0  0  0  0  0  0  0  0  0  0  0
   -2.6350   -3.5717    2.0009 H   0  0  0  0  0  0  0  0  0  0  0  0
   -5.1863   -7.3630    0.1754 H   0  0  0  0  0  0  0  0  0  0  0  0
   -6.6354   -8.9383    1.3666 H   0  0  0  0  0  0  0  0  0  0  0  0
   -6.5224   -9.2380    3.8485 H   0  0  0  0  0  0  0  0  0  0  0  0
  1  2  1  0  0  0  0
  1 33  1  0  0  0  0
  1 34  1  0  0  0  0
  1 35  1  0  0  0  0
  2  3  2  0  0  0  0
  2  7  1  0  0  0  0
  3  4  1  0  0  0  0
  3 32  1  0  0  0  0
  4  5  2  0  0  0  0
  4 36  1  0  0  0  0
  5  6  1  0  0  0  0
  5  8  1  0  0  0  0
  6  7  2  0  0  0  0
  6 37  1  0  0  0  0
  7 38  1  0  0  0  0
  8  9  1  0  0  0  0
  8 39  1  0  0  0  0
  9 10  2  0  0  0  0
  9 18  1  0  0  0  0
 10 11  1  0  0  0  0
 11 12  2  0  0  0  0
 11 16  1  0  0  0  0
 12 13  1  0  0  0  0
 12 40  1  0  0  0  0
 13 14  2  0  0  0  0
 13 41  1  0  0  0  0
 14 15  1  0  0  0  0
 14 42  1  0  0  0  0
 15 16  2  0  0  0  0
 15 43  1  0  0  0  0
 16 17  1  0  0  0  0
 17 18  2  0  0  0  0
 18 19  1  0  0  0  0
 19 20  1  0  0  0  0
 19 44  1  0  0  0  0
 20 21  2  0  0  0  0
 20 22  2  0  0  0  0
 20 23  1  0  0  0  0
 23 24  2  0  0  0  0
 23 31  1  0  0  0  0
 24 25  1  0  0  0  0
 24 45  1  0  0  0  0
 25 26  2  0  0  0  0
 25 46  1  0  0  0  0
 26 27  1  0  0  0  0
 26 47  1  0  0  0  0
 27 28  2  0  0  0  0
 27 31  1  0  0  0  0
 28 29  1  0  0  0  0
 29 30  1  0  0  0  0
 30 31  2  0  0  0  0
M  END
