
 OpenBabel10072619553D

 30 31  0  0  0  0  0  0  0  0999 V2000
    1.1524   -0.2796   -0.9369 C   0  0  0  0  0  0  0  0  0  0  0  0
    0.2992    0.6153   -1.5804 C   0  0  0  0  0  0  0  0  0  0  0  0
   -0.9992    0.8094   -1.1041 C   0  0  0  0  0  0  0  0  0  0  0  0
   -1.4518    0.1073    0.0181 C   0  0  0  0  0  0  0  0  0  0  0  0
   -0.5846   -0.7809    0.6673 C   0  0  0  0  0  0  0  0  0  0  0  0
    0.7124   -0.9767    0.1873 C   0  0  0  0  0  0  0  0  0  0  0  0
   -3.1222    0.3612    0.6621 S   0  0  3  0  0  0  0  0  0  0  0  0
   -3.7715    1.3891   -0.2179 O   0  0  0  0  0  0  0  0  0  0  0  0
   -3.8731   -1.2067    0.2180 C   0  0  0  0  0  0  0  0  0  0  0  0
   -5.2107   -1.2637    0.1177 C   0  0  0  0  0  0  0  0  0  0  0  0
   -5.9586   -2.4774   -0.2390 C   0  0  0  0  0  0  0  0  0  0  0  0
   -5.6080   -3.7445    0.2512 C   0  0  0  0  0  0  0  0  0  0  0  0
   -6.3588   -4.8755   -0.0892 C   0  0  0  0  0  0  0  0  0  0  0  0
   -7.4770   -4.7373   -0.9204 C   0  0  0  0  0  0  0  0  0  0  0  0
   -7.8520   -3.4772   -1.4004 C   0  0  0  0  0  0  0  0  0  0  0  0
   -7.0947   -2.3538   -1.0524 C   0  0  0  0  0  0  0  0  0  0  0  0
   -8.2641   -5.9210   -1.2890 N   0  3  0  0  0  0  0  0  0  0  0  0
   -7.8934   -7.0192   -0.8496 O   0  0  0  0  0  0  0  0  0  0  0  0
   -9.2506   -5.7531   -2.0196 O   0  5  0  0  0  0  0  0  0  0  0  0
    2.1624   -0.4307   -1.3103 H   0  0  0  0  0  0  0  0  0  0  0  0
    0.6445    1.1659   -2.4521 H   0  0  0  0  0  0  0  0  0  0  0  0
   -1.6540    1.5144   -1.6125 H   0  0  0  0  0  0  0  0  0  0  0  0
   -0.9066   -1.3213    1.5538 H   0  0  0  0  0  0  0  0  0  0  0  0
    1.3823   -1.6680    0.6928 H   0  0  0  0  0  0  0  0  0  0  0  0
   -3.2618   -2.0836    0.0342 H   0  0  0  0  0  0  0  0  0  0  0  0
   -5.8117   -0.3670    0.2683 H   0  0  0  0  0  0  0  0  0  0  0  0
   -4.7526   -3.8671    0.9122 H   0  0  0  0  0  0  0  0  0  0  0  0
   -6.0618   -5.8464    0.3027 H   0  0  0  0  0  0  0  0  0  0  0  0
   -8.7220   -3.3511   -2.0418 H   0  0  0  0  0  0  0  0  0  0  0  0
   -7.3939   -1.3783   -1.4344 H   0  0  0  0  0  0  0  0  0  0  0  0
  1  2  2  0  0  0  0
  1  6  1  0  0  0  0
  1 20  1  0  0  0  0
  2  3  1  0  0  0  0
  2 21  1  0  0  0  0
  3  4  2  0  0  0  0
  3 22  1  0  0  0  0
  4  5  1  0  0  0  0
  4  7  1  0  0  0  0
  5  6  2  0  0  0  0
  5 23  1  0  0  0  0
  6 24  1  0  0  0  0
  7  8  2  0  0  0  0
  7  9  1  0  0  0  0
  9 10  2  0  0  0  0
  9 25  1  0  0  0  0
 10 11  1  0  0  0  0
 10 26  1  0  0  0  0
 11 12  2  0  0  0  0
 11 16  1  0  0  0  0
 12 13  1  0  0  0  0
 12 27  1  0  0  0  0
 13 14  2  0  0  0  0
 13 28  1  0  0  0  0
 14 15  1  0  0  0  0
 14 17  1  0  0  0  0
 15 16  2  0  0  0  0
 15 29  1  0  0  0  0
 16 30  1  0  0  0  0
 17 18  2  0  0  0  0
 17 19  1  0  0  0  0
M  CHG  2  17   1  19  -1
M  END
