
 OpenBabel10072619543D

 63 67  0  0  1  0  0  0  0  0999 V2000
   -7.3087    3.8166  -12.2603 C   0  0  0  0  0  0  0  0  0  0  0  0
   -8.5202    4.4980  -12.9039 C   0  0  0  0  0  0  0  0  0  0  0  0
   -9.7368    4.0589  -12.2799 O   0  0  0  0  0  0  0  0  0  0  0  0
   -9.7412    4.4033  -10.8873 C   0  0  0  0  0  0  0  0  0  0  0  0
   -8.5519    3.7688  -10.1507 C   0  0  0  0  0  0  0  0  0  0  0  0
   -7.2410    4.1101  -10.7925 N   0  0  0  0  0  0  0  0  0  0  0  0
   -6.5261    5.6041  -10.3945 S   0  0  0  0  0  0  0  0  0  0  0  0
   -5.3168    5.7457  -11.1775 O   0  0  0  0  0  0  0  0  0  0  0  0
   -7.5461    6.6280  -10.4175 O   0  0  0  0  0  0  0  0  0  0  0  0
   -6.0261    5.3668   -8.7033 C   0  0  0  0  0  0  0  0  0  0  0  0
   -4.7484    4.8619   -8.4313 C   0  0  0  0  0  0  0  0  0  0  0  0
   -4.3412    4.6854   -7.1084 C   0  0  0  0  0  0  0  0  0  0  0  0
   -5.2134    5.0290   -6.0706 C   0  0  0  0  0  0  0  0  0  0  0  0
   -6.4914    5.5366   -6.3427 C   0  0  0  0  0  0  0  0  0  0  0  0
   -6.8889    5.7322   -7.6650 C   0  0  0  0  0  0  0  0  0  0  0  0
   -4.7290    4.7396   -4.3831 S   0  0  0  0  0  0  0  0  0  0  0  0
   -5.9212    4.4108   -3.6367 O   0  0  0  0  0  0  0  0  0  0  0  0
   -3.5835    3.8576   -4.3999 O   0  0  0  0  0  0  0  0  0  0  0  0
   -4.1464    6.2314   -3.8872 N   0  0  0  0  0  0  0  0  0  0  0  0
   -4.9521    7.4553   -3.9317 C   0  0  0  0  0  0  0  0  0  0  0  0
   -6.0295    7.4620   -2.8466 C   0  0  0  0  0  0  0  0  0  0  0  0
   -6.9484    8.7100   -2.8005 C   0  0  3  0  0  0  0  0  0  0  0  0
   -7.7584    8.8692   -4.1136 C   0  0  0  0  0  0  0  0  0  0  0  0
   -8.7099   10.0751   -4.0233 C   0  0  3  0  0  0  0  0  0  0  0  0
   -7.8824   11.3485   -3.7828 C   0  0  0  0  0  0  0  0  0  0  0  0
   -7.0958   11.2249   -2.4674 C   0  0  3  0  0  0  0  0  0  0  0  0
   -6.1490   10.0133   -2.5565 C   0  0  0  0  0  0  0  0  0  0  0  0
   -8.0820   11.0230   -1.3067 C   0  0  0  0  0  0  0  0  0  0  0  0
   -8.9066    9.7470   -1.5365 C   0  0  3  0  0  0  0  0  0  0  0  0
   -9.6858    9.8726   -2.8543 C   0  0  0  0  0  0  0  0  0  0  0  0
   -7.9565    8.5408   -1.6263 C   0  0  0  0  0  0  0  0  0  0  0  0
   -6.3825    4.1063  -12.7650 H   0  0  0  0  0  0  0  0  0  0  0  0
   -7.3952    2.7277  -12.3662 H   0  0  0  0  0  0  0  0  0  0  0  0
   -8.5777    4.2250  -13.9629 H   0  0  0  0  0  0  0  0  0  0  0  0
   -8.4587    5.5906  -12.8426 H   0  0  0  0  0  0  0  0  0  0  0  0
  -10.6775    4.0268  -10.4598 H   0  0  0  0  0  0  0  0  0  0  0  0
   -9.7570    5.4936  -10.7905 H   0  0  0  0  0  0  0  0  0  0  0  0
   -8.6454    2.6761  -10.1892 H   0  0  0  0  0  0  0  0  0  0  0  0
   -8.5618    4.0411   -9.0944 H   0  0  0  0  0  0  0  0  0  0  0  0
   -4.0669    4.6104   -9.2418 H   0  0  0  0  0  0  0  0  0  0  0  0
   -3.3522    4.2797   -6.9004 H   0  0  0  0  0  0  0  0  0  0  0  0
   -7.1696    5.7925   -5.5309 H   0  0  0  0  0  0  0  0  0  0  0  0
   -7.8667    6.1592   -7.8779 H   0  0  0  0  0  0  0  0  0  0  0  0
   -3.1349    6.3194   -3.9786 H   0  0  0  0  0  0  0  0  0  0  0  0
   -5.3715    7.5940   -4.9291 H   0  0  0  0  0  0  0  0  0  0  0  0
   -4.2613    8.2917   -3.7786 H   0  0  0  0  0  0  0  0  0  0  0  0
   -5.5434    7.3295   -1.8710 H   0  0  0  0  0  0  0  0  0  0  0  0
   -6.6765    6.5891   -2.9747 H   0  0  0  0  0  0  0  0  0  0  0  0
   -8.3324    7.9567   -4.3208 H   0  0  0  0  0  0  0  0  0  0  0  0
   -7.0841    9.0185   -4.9651 H   0  0  0  0  0  0  0  0  0  0  0  0
   -9.2721   10.1715   -4.9582 H   0  0  0  0  0  0  0  0  0  0  0  0
   -8.5437   12.2224   -3.7448 H   0  0  0  0  0  0  0  0  0  0  0  0
   -7.1898   11.5090   -4.6180 H   0  0  0  0  0  0  0  0  0  0  0  0
   -6.5106   12.1352   -2.2988 H   0  0  0  0  0  0  0  0  0  0  0  0
   -5.5674    9.9286   -1.6298 H   0  0  0  0  0  0  0  0  0  0  0  0
   -5.4319   10.1833   -3.3684 H   0  0  0  0  0  0  0  0  0  0  0  0
   -8.7499   11.8895   -1.2275 H   0  0  0  0  0  0  0  0  0  0  0  0
   -7.5380   10.9547   -0.3564 H   0  0  0  0  0  0  0  0  0  0  0  0
   -9.6059    9.6055   -0.7049 H   0  0  0  0  0  0  0  0  0  0  0  0
  -10.3826   10.7179   -2.7980 H   0  0  0  0  0  0  0  0  0  0  0  0
  -10.2889    8.9711   -3.0192 H   0  0  0  0  0  0  0  0  0  0  0  0
   -8.5406    7.6191   -1.7550 H   0  0  0  0  0  0  0  0  0  0  0  0
   -7.4121    8.4357   -0.6785 H   0  0  0  0  0  0  0  0  0  0  0  0
  1  2  1  0  0  0  0
  1  6  1  0  0  0  0
  1 32  1  0  0  0  0
  1 33  1  0  0  0  0
  2  3  1  0  0  0  0
  2 34  1  0  0  0  0
  2 35  1  0  0  0  0
  3  4  1  0  0  0  0
  4  5  1  0  0  0  0
  4 36  1  0  0  0  0
  4 37  1  0  0  0  0
  5  6  1  0  0  0  0
  5 38  1  0  0  0  0
  5 39  1  0  0  0  0
  6  7  1  0  0  0  0
  7  8  2  0  0  0  0
  7  9  2  0  0  0  0
  7 10  1  0  0  0  0
 10 11  2  0  0  0  0
 10 15  1  0  0  0  0
 11 12  1  0  0  0  0
 11 40  1  0  0  0  0
 12 13  2  0  0  0  0
 12 41  1  0  0  0  0
 13 14  1  0  0  0  0
 13 16  1  0  0  0  0
 14 15  2  0  0  0  0
 14 42  1  0  0  0  0
 15 43  1  0  0  0  0
 16 17  2  0  0  0  0
 16 18  2  0  0  0  0
 16 19  1  0  0  0  0
 19 20  1  0  0  0  0
 19 44  1  0  0  0  0
 20 21  1  0  0  0  0
 20 45  1  0  0  0  0
 20 46  1  0  0  0  0
 21 22  1  0  0  0  0
 21 47  1  0  0  0  0
 21 48  1  0  0  0  0
 22 23  1  0  0  0  0
 22 27  1  0  0  0  0
 22 31  1  0  0  0  0
 23 24  1  0  0  0  0
 23 49  1  0  0  0  0
 23 50  1  0  0  0  0
 24 25  1  0  0  0  0
 24 30  1  0  0  0  0
 24 51  1  0  0  0  0
 25 26  1  0  0  0  0
 25 52  1  0  0  0  0
 25 53  1  0  0  0  0
 26 27  1  0  0  0  0
 26 28  1  0  0  0  0
 26 54  1  0  0  0  0
 27 55  1  0  0  0  0
 27 56  1  0  0  0  0
 28 29  1  0  0  0  0
 28 57  1  0  0  0  0
 28 58  1  0  0  0  0
 29 30  1  0  0  0  0
 29 31  1  0  0  0  0
 29 59  1  0  0  0  0
 30 60  1  0  0  0  0
 30 61  1  0  0  0  0
 31 62  1  0  0  0  0
 31 63  1  0  0  0  0
M  END
