
 OpenBabel10072619483D

 31 32  0  0  0  0  0  0  0  0999 V2000
    1.0735    0.3181   -0.2203 C   0  0  0  0  0  0  0  0  0  0  0  0
    2.4951    0.0912    0.0854 N   0  0  0  0  0  0  0  0  0  0  0  0
    3.2826   -0.5131   -0.9677 C   0  0  0  0  0  0  0  0  0  0  0  0
    2.9201   -0.3806   -2.3181 C   0  0  0  0  0  0  0  0  0  0  0  0
    3.6886   -0.9596   -3.3349 C   0  0  0  0  0  0  0  0  0  0  0  0
    4.8220   -1.6999   -3.0179 C   0  0  0  0  0  0  0  0  0  0  0  0
    5.1833   -1.8686   -1.6857 C   0  0  0  0  0  0  0  0  0  0  0  0
    4.4164   -1.2858   -0.6722 C   0  0  0  0  0  0  0  0  0  0  0  0
    3.0270    0.3985    1.3765 C   0  0  0  0  0  0  0  0  0  0  0  0
    2.1031    0.3632    2.7837 S   0  0  0  0  0  0  0  0  0  0  0  0
    4.3483    0.8443    1.2919 N   0  0  0  0  0  0  0  0  0  0  0  0
    5.3459    1.0839    2.2629 C   0  0  0  0  0  0  0  0  0  0  0  0
    5.3522    0.5499    3.5523 C   0  0  0  0  0  0  0  0  0  0  0  0
    6.3955    0.8389    4.4404 C   0  0  0  0  0  0  0  0  0  0  0  0
    7.4544    1.6498    4.0416 C   0  0  0  0  0  0  0  0  0  0  0  0
    7.4776    2.1631    2.7492 C   0  0  0  0  0  0  0  0  0  0  0  0
    6.4350    1.8728    1.8646 C   0  0  0  0  0  0  0  0  0  0  0  0
    0.6434   -0.5819   -0.6727 H   0  0  0  0  0  0  0  0  0  0  0  0
    0.9954    1.1650   -0.9099 H   0  0  0  0  0  0  0  0  0  0  0  0
    0.4768    0.5713    0.6567 H   0  0  0  0  0  0  0  0  0  0  0  0
    2.0547    0.2009   -2.6195 H   0  0  0  0  0  0  0  0  0  0  0  0
    3.4019   -0.8244   -4.3752 H   0  0  0  0  0  0  0  0  0  0  0  0
    5.4200   -2.1492   -3.8062 H   0  0  0  0  0  0  0  0  0  0  0  0
    6.0595   -2.4579   -1.4277 H   0  0  0  0  0  0  0  0  0  0  0  0
    4.7123   -1.4762    0.3568 H   0  0  0  0  0  0  0  0  0  0  0  0
    4.5831    1.1641    0.3585 H   0  0  0  0  0  0  0  0  0  0  0  0
    4.5772   -0.1239    3.8971 H   0  0  0  0  0  0  0  0  0  0  0  0
    6.3795    0.4212    5.4442 H   0  0  0  0  0  0  0  0  0  0  0  0
    8.2605    1.8745    4.7347 H   0  0  0  0  0  0  0  0  0  0  0  0
    8.3040    2.7922    2.4284 H   0  0  0  0  0  0  0  0  0  0  0  0
    6.4798    2.2871    0.8605 H   0  0  0  0  0  0  0  0  0  0  0  0
  1  2  1  0  0  0  0
  1 18  1  0  0  0  0
  1 19  1  0  0  0  0
  1 20  1  0  0  0  0
  2  3  1  0  0  0  0
  2  9  1  0  0  0  0
  3  4  2  0  0  0  0
  3  8  1  0  0  0  0
  4  5  1  0  0  0  0
  4 21  1  0  0  0  0
  5  6  2  0  0  0  0
  5 22  1  0  0  0  0
  6  7  1  0  0  0  0
  6 23  1  0  0  0  0
  7  8  2  0  0  0  0
  7 24  1  0  0  0  0
  8 25  1  0  0  0  0
  9 10  2  0  0  0  0
  9 11  1  0  0  0  0
 11 12  1  0  0  0  0
 11 26  1  0  0  0  0
 12 13  2  0  0  0  0
 12 17  1  0  0  0  0
 13 14  1  0  0  0  0
 13 27  1  0  0  0  0
 14 15  2  0  0  0  0
 14 28  1  0  0  0  0
 15 16  1  0  0  0  0
 15 29  1  0  0  0  0
 16 17  2  0  0  0  0
 16 30  1  0  0  0  0
 17 31  1  0  0  0  0
M  END
