
 OpenBabel10072620093D

 61 63  0  0  1  0  0  0  0  0999 V2000
    5.4537    0.1574    5.3082 C   0  0  0  0  0  0  0  0  0  0  0  0
    4.0187    0.1073    4.8036 C   0  0  0  0  0  0  0  0  0  0  0  0
    3.7318    1.1598    3.7234 C   0  0  0  0  0  0  0  0  0  0  0  0
    4.5617    0.9483    2.5264 N   0  0  0  0  0  0  0  0  0  0  0  0
    4.2321   -0.2046    1.6808 C   0  0  0  0  0  0  0  0  0  0  0  0
    3.5405    0.2429    0.4047 C   0  0  0  0  0  0  0  0  0  0  0  0
    4.5102    1.1006   -0.3909 C   0  0  0  0  0  0  0  0  0  0  0  0
    5.1342    2.1644    0.4756 C   0  0  0  0  0  0  0  0  0  0  0  0
    5.1221    2.0585    1.8805 C   0  0  0  0  0  0  0  0  0  0  0  0
    5.7537    3.0838    2.5985 C   0  0  0  0  0  0  0  0  0  0  0  0
    6.3574    4.1803    1.9599 C   0  0  0  0  0  0  0  0  0  0  0  0
    6.3648    4.2844    0.5668 C   0  0  0  0  0  0  0  0  0  0  0  0
    5.7672    3.2492   -0.1603 C   0  0  0  0  0  0  0  0  0  0  0  0
    7.0930    5.3848   -0.1792 C   0  0  0  0  0  0  0  0  0  0  0  0
    6.7972    6.7512    0.2995 N   0  0  0  0  0  0  0  0  0  0  0  0
    5.8611    7.5887   -0.5158 C   0  0  3  0  0  0  0  0  0  0  0  0
    6.4487    7.9231   -1.8939 C   0  0  0  0  0  0  0  0  0  0  0  0
    4.4114    7.0671   -0.5229 C   0  0  0  0  0  0  0  0  0  0  0  0
    4.0003    6.2110   -1.7099 C   0  0  0  0  0  0  0  0  0  0  0  0
    7.6266    7.3895    1.2627 C   0  0  0  0  0  0  0  0  0  0  0  0
    9.1933    6.9233    1.6558 S   0  0  0  0  0  0  0  0  0  0  0  0
    6.9288    8.3857    1.9346 N   0  0  0  0  0  0  0  0  0  0  0  0
    7.3683    9.5870    2.5285 C   0  0  0  0  0  0  0  0  0  0  0  0
    8.5697   10.2149    2.2029 C   0  0  0  0  0  0  0  0  0  0  0  0
    8.8826   11.4586    2.7583 C   0  0  0  0  0  0  0  0  0  0  0  0
    8.0040   12.0856    3.6398 C   0  0  0  0  0  0  0  0  0  0  0  0
    6.8012   11.4663    3.9679 C   0  0  0  0  0  0  0  0  0  0  0  0
    6.4818   10.2262    3.4064 C   0  0  0  0  0  0  0  0  0  0  0  0
   10.3554   12.2400    2.3240 Cl  0  0  0  0  0  0  0  0  0  0  0  0
    5.6090   -0.6012    6.0825 H   0  0  0  0  0  0  0  0  0  0  0  0
    5.6799    1.1367    5.7415 H   0  0  0  0  0  0  0  0  0  0  0  0
    6.1661   -0.0388    4.5003 H   0  0  0  0  0  0  0  0  0  0  0  0
    3.3404    0.2771    5.6496 H   0  0  0  0  0  0  0  0  0  0  0  0
    3.8053   -0.9019    4.4336 H   0  0  0  0  0  0  0  0  0  0  0  0
    3.8659    2.1532    4.1651 H   0  0  0  0  0  0  0  0  0  0  0  0
    2.6722    1.1018    3.4407 H   0  0  0  0  0  0  0  0  0  0  0  0
    3.5848   -0.9127    2.2098 H   0  0  0  0  0  0  0  0  0  0  0  0
    5.1579   -0.7466    1.4475 H   0  0  0  0  0  0  0  0  0  0  0  0
    2.6377    0.8195    0.6469 H   0  0  0  0  0  0  0  0  0  0  0  0
    3.2311   -0.6234   -0.1905 H   0  0  0  0  0  0  0  0  0  0  0  0
    3.9740    1.5590   -1.2299 H   0  0  0  0  0  0  0  0  0  0  0  0
    5.3110    0.4762   -0.8064 H   0  0  0  0  0  0  0  0  0  0  0  0
    5.8354    3.0177    3.6804 H   0  0  0  0  0  0  0  0  0  0  0  0
    6.8566    4.9224    2.5753 H   0  0  0  0  0  0  0  0  0  0  0  0
    5.7997    3.2668   -1.2475 H   0  0  0  0  0  0  0  0  0  0  0  0
    6.8384    5.3347   -1.2413 H   0  0  0  0  0  0  0  0  0  0  0  0
    8.1636    5.1675   -0.1353 H   0  0  0  0  0  0  0  0  0  0  0  0
    5.7948    8.5705   -0.0331 H   0  0  0  0  0  0  0  0  0  0  0  0
    6.5299    7.0483   -2.5444 H   0  0  0  0  0  0  0  0  0  0  0  0
    7.4549    8.3456   -1.7913 H   0  0  0  0  0  0  0  0  0  0  0  0
    5.8292    8.6650   -2.4092 H   0  0  0  0  0  0  0  0  0  0  0  0
    3.7425    7.9385   -0.5201 H   0  0  0  0  0  0  0  0  0  0  0  0
    4.2039    6.5315    0.4110 H   0  0  0  0  0  0  0  0  0  0  0  0
    4.0409    6.7813   -2.6434 H   0  0  0  0  0  0  0  0  0  0  0  0
    2.9679    5.8708   -1.5797 H   0  0  0  0  0  0  0  0  0  0  0  0
    4.6288    5.3275   -1.8196 H   0  0  0  0  0  0  0  0  0  0  0  0
    5.9534    8.1544    2.0767 H   0  0  0  0  0  0  0  0  0  0  0  0
    9.2579    9.7806    1.4867 H   0  0  0  0  0  0  0  0  0  0  0  0
    8.2476   13.0567    4.0626 H   0  0  0  0  0  0  0  0  0  0  0  0
    6.1091   11.9491    4.6543 H   0  0  0  0  0  0  0  0  0  0  0  0
    5.5356    9.7635    3.6739 H   0  0  0  0  0  0  0  0  0  0  0  0
  1  2  1  0  0  0  0
  1 30  1  0  0  0  0
  1 31  1  0  0  0  0
  1 32  1  0  0  0  0
  2  3  1  0  0  0  0
  2 33  1  0  0  0  0
  2 34  1  0  0  0  0
  3  4  1  0  0  0  0
  3 35  1  0  0  0  0
  3 36  1  0  0  0  0
  4  5  1  0  0  0  0
  4  9  1  0  0  0  0
  5  6  1  0  0  0  0
  5 37  1  0  0  0  0
  5 38  1  0  0  0  0
  6  7  1  0  0  0  0
  6 39  1  0  0  0  0
  6 40  1  0  0  0  0
  7  8  1  0  0  0  0
  7 41  1  0  0  0  0
  7 42  1  0  0  0  0
  8  9  2  0  0  0  0
  8 13  1  0  0  0  0
  9 10  1  0  0  0  0
 10 11  2  0  0  0  0
 10 43  1  0  0  0  0
 11 12  1  0  0  0  0
 11 44  1  0  0  0  0
 12 13  2  0  0  0  0
 12 14  1  0  0  0  0
 13 45  1  0  0  0  0
 14 15  1  0  0  0  0
 14 46  1  0  0  0  0
 14 47  1  0  0  0  0
 15 16  1  0  0  0  0
 15 20  1  0  0  0  0
 16 17  1  0  0  0  0
 16 18  1  0  0  0  0
 16 48  1  0  0  0  0
 17 49  1  0  0  0  0
 17 50  1  0  0  0  0
 17 51  1  0  0  0  0
 18 19  1  0  0  0  0
 18 52  1  0  0  0  0
 18 53  1  0  0  0  0
 19 54  1  0  0  0  0
 19 55  1  0  0  0  0
 19 56  1  0  0  0  0
 20 21  2  0  0  0  0
 20 22  1  0  0  0  0
 22 23  1  0  0  0  0
 22 57  1  0  0  0  0
 23 24  2  0  0  0  0
 23 28  1  0  0  0  0
 24 25  1  0  0  0  0
 24 58  1  0  0  0  0
 25 26  2  0  0  0  0
 25 29  1  0  0  0  0
 26 27  1  0  0  0  0
 26 59  1  0  0  0  0
 27 28  2  0  0  0  0
 27 60  1  0  0  0  0
 28 61  1  0  0  0  0
M  END
