
 OpenBabel10072619573D

 71 73  0  0  0  0  0  0  0  0999 V2000
    3.9322   -3.9042   -0.4177 C   0  0  0  0  0  0  0  0  0  0  0  0
    5.3828   -3.4393   -0.4118 C   0  0  0  0  0  0  0  0  0  0  0  0
    5.8642   -2.9246   -1.7735 C   0  0  0  0  0  0  0  0  0  0  0  0
    5.2063   -1.6656   -2.1481 N   0  0  0  0  0  0  0  0  0  0  0  0
    4.2685   -1.7445   -3.2736 C   0  0  0  0  0  0  0  0  0  0  0  0
    3.3711   -0.5193   -3.3202 C   0  0  0  0  0  0  0  0  0  0  0  0
    4.2437    0.7114   -3.5027 C   0  0  0  0  0  0  0  0  0  0  0  0
    5.3137    0.7623   -2.4412 C   0  0  0  0  0  0  0  0  0  0  0  0
    5.7662   -0.4275   -1.8248 C   0  0  0  0  0  0  0  0  0  0  0  0
    6.7568   -0.2843   -0.8440 C   0  0  0  0  0  0  0  0  0  0  0  0
    7.2756    0.9654   -0.4845 C   0  0  0  0  0  0  0  0  0  0  0  0
    6.8241    2.1363   -1.1003 C   0  0  0  0  0  0  0  0  0  0  0  0
    5.8659    2.0147   -2.1056 C   0  0  0  0  0  0  0  0  0  0  0  0
    7.4227    3.4687   -0.7205 C   0  0  0  0  0  0  0  0  0  0  0  0
    6.4735    4.5976   -0.5870 N   0  0  0  0  0  0  0  0  0  0  0  0
    5.3745    4.3787    0.3827 C   0  0  0  0  0  0  0  0  0  0  0  0
    4.0837    5.1496    0.0823 C   0  0  0  0  0  0  0  0  0  0  0  0
    3.4734    4.7910   -1.2654 C   0  0  0  0  0  0  0  0  0  0  0  0
    2.2625    5.5336   -1.4342 O   0  0  0  0  0  0  0  0  0  0  0  0
    1.6398    5.2362   -2.6820 C   0  0  0  0  0  0  0  0  0  0  0  0
    0.4152    6.1134   -2.8482 C   0  0  0  0  0  0  0  0  0  0  0  0
    7.0973    5.8828   -0.6996 C   0  0  0  0  0  0  0  0  0  0  0  0
    6.9875    7.1084    0.4422 S   0  0  0  0  0  0  0  0  0  0  0  0
    7.7615    5.9830   -1.9192 N   0  0  0  0  0  0  0  0  0  0  0  0
    8.8857    6.7447   -2.3074 C   0  0  0  0  0  0  0  0  0  0  0  0
    9.1446    6.8459   -3.6783 C   0  0  0  0  0  0  0  0  0  0  0  0
   10.2957    7.4912   -4.1666 C   0  0  0  0  0  0  0  0  0  0  0  0
   11.2001    8.0674   -3.2563 C   0  0  0  0  0  0  0  0  0  0  0  0
   10.9447    7.9507   -1.8836 C   0  0  0  0  0  0  0  0  0  0  0  0
    9.8021    7.2932   -1.4134 C   0  0  0  0  0  0  0  0  0  0  0  0
   12.4689    8.7359   -3.7097 C   0  0  0  0  0  0  0  0  0  0  0  0
   10.5378    7.5266   -5.6502 C   0  0  0  0  0  0  0  0  0  0  0  0
    3.6525   -4.2809    0.5721 H   0  0  0  0  0  0  0  0  0  0  0  0
    3.7796   -4.7128   -1.1395 H   0  0  0  0  0  0  0  0  0  0  0  0
    3.2503   -3.0847   -0.6638 H   0  0  0  0  0  0  0  0  0  0  0  0
    6.0167   -4.2861   -0.1201 H   0  0  0  0  0  0  0  0  0  0  0  0
    5.5009   -2.6728    0.3617 H   0  0  0  0  0  0  0  0  0  0  0  0
    5.6674   -3.6920   -2.5343 H   0  0  0  0  0  0  0  0  0  0  0  0
    6.9550   -2.8070   -1.7701 H   0  0  0  0  0  0  0  0  0  0  0  0
    3.6352   -2.6350   -3.1679 H   0  0  0  0  0  0  0  0  0  0  0  0
    4.8259   -1.8511   -4.2141 H   0  0  0  0  0  0  0  0  0  0  0  0
    2.7923   -0.4415   -2.3893 H   0  0  0  0  0  0  0  0  0  0  0  0
    2.6551   -0.5985   -4.1458 H   0  0  0  0  0  0  0  0  0  0  0  0
    3.6134    1.6072   -3.4563 H   0  0  0  0  0  0  0  0  0  0  0  0
    4.7269    0.6946   -4.4878 H   0  0  0  0  0  0  0  0  0  0  0  0
    7.1465   -1.1504   -0.3154 H   0  0  0  0  0  0  0  0  0  0  0  0
    8.0356    1.0045    0.2906 H   0  0  0  0  0  0  0  0  0  0  0  0
    5.5202    2.9072   -2.6223 H   0  0  0  0  0  0  0  0  0  0  0  0
    8.1974    3.6927   -1.4619 H   0  0  0  0  0  0  0  0  0  0  0  0
    7.9374    3.3915    0.2471 H   0  0  0  0  0  0  0  0  0  0  0  0
    5.7398    4.6158    1.3882 H   0  0  0  0  0  0  0  0  0  0  0  0
    5.1156    3.3149    0.3941 H   0  0  0  0  0  0  0  0  0  0  0  0
    4.2308    6.2319    0.1277 H   0  0  0  0  0  0  0  0  0  0  0  0
    3.3528    4.9306    0.8709 H   0  0  0  0  0  0  0  0  0  0  0  0
    3.2464    3.7207   -1.3072 H   0  0  0  0  0  0  0  0  0  0  0  0
    4.1636    5.0430   -2.0777 H   0  0  0  0  0  0  0  0  0  0  0  0
    1.3455    4.1817   -2.6999 H   0  0  0  0  0  0  0  0  0  0  0  0
    2.3400    5.4238   -3.5033 H   0  0  0  0  0  0  0  0  0  0  0  0
   -0.3077    5.9247   -2.0482 H   0  0  0  0  0  0  0  0  0  0  0  0
   -0.0688    5.9226   -3.8107 H   0  0  0  0  0  0  0  0  0  0  0  0
    0.6857    7.1729   -2.7914 H   0  0  0  0  0  0  0  0  0  0  0  0
    7.3045    5.4659   -2.6587 H   0  0  0  0  0  0  0  0  0  0  0  0
    8.4454    6.4112   -4.3898 H   0  0  0  0  0  0  0  0  0  0  0  0
   11.6469    8.3568   -1.1575 H   0  0  0  0  0  0  0  0  0  0  0  0
    9.6874    7.1909   -0.3411 H   0  0  0  0  0  0  0  0  0  0  0  0
   12.2935    9.3594   -4.5921 H   0  0  0  0  0  0  0  0  0  0  0  0
   13.2252    7.9800   -3.9457 H   0  0  0  0  0  0  0  0  0  0  0  0
   12.8691    9.3953   -2.9315 H   0  0  0  0  0  0  0  0  0  0  0  0
    9.7632    6.9798   -6.1979 H   0  0  0  0  0  0  0  0  0  0  0  0
   11.4968    7.0562   -5.8881 H   0  0  0  0  0  0  0  0  0  0  0  0
   10.5329    8.5571   -6.0164 H   0  0  0  0  0  0  0  0  0  0  0  0
  1  2  1  0  0  0  0
  1 33  1  0  0  0  0
  1 34  1  0  0  0  0
  1 35  1  0  0  0  0
  2  3  1  0  0  0  0
  2 36  1  0  0  0  0
  2 37  1  0  0  0  0
  3  4  1  0  0  0  0
  3 38  1  0  0  0  0
  3 39  1  0  0  0  0
  4  5  1  0  0  0  0
  4  9  1  0  0  0  0
  5  6  1  0  0  0  0
  5 40  1  0  0  0  0
  5 41  1  0  0  0  0
  6  7  1  0  0  0  0
  6 42  1  0  0  0  0
  6 43  1  0  0  0  0
  7  8  1  0  0  0  0
  7 44  1  0  0  0  0
  7 45  1  0  0  0  0
  8  9  2  0  0  0  0
  8 13  1  0  0  0  0
  9 10  1  0  0  0  0
 10 11  2  0  0  0  0
 10 46  1  0  0  0  0
 11 12  1  0  0  0  0
 11 47  1  0  0  0  0
 12 13  2  0  0  0  0
 12 14  1  0  0  0  0
 13 48  1  0  0  0  0
 14 15  1  0  0  0  0
 14 49  1  0  0  0  0
 14 50  1  0  0  0  0
 15 16  1  0  0  0  0
 15 22  1  0  0  0  0
 16 17  1  0  0  0  0
 16 51  1  0  0  0  0
 16 52  1  0  0  0  0
 17 18  1  0  0  0  0
 17 53  1  0  0  0  0
 17 54  1  0  0  0  0
 18 19  1  0  0  0  0
 18 55  1  0  0  0  0
 18 56  1  0  0  0  0
 19 20  1  0  0  0  0
 20 21  1  0  0  0  0
 20 57  1  0  0  0  0
 20 58  1  0  0  0  0
 21 59  1  0  0  0  0
 21 60  1  0  0  0  0
 21 61  1  0  0  0  0
 22 23  2  0  0  0  0
 22 24  1  0  0  0  0
 24 25  1  0  0  0  0
 24 62  1  0  0  0  0
 25 26  2  0  0  0  0
 25 30  1  0  0  0  0
 26 27  1  0  0  0  0
 26 63  1  0  0  0  0
 27 28  2  0  0  0  0
 27 32  1  0  0  0  0
 28 29  1  0  0  0  0
 28 31  1  0  0  0  0
 29 30  2  0  0  0  0
 29 64  1  0  0  0  0
 30 65  1  0  0  0  0
 31 66  1  0  0  0  0
 31 67  1  0  0  0  0
 31 68  1  0  0  0  0
 32 69  1  0  0  0  0
 32 70  1  0  0  0  0
 32 71  1  0  0  0  0
M  END
