
 OpenBabel10072619433D

 49 52  0  0  0  0  0  0  0  0999 V2000
   -0.2229   -1.3262    4.8255 C   0  0  0  0  0  0  0  0  0  0  0  0
   -0.9356   -0.2243    4.3555 C   0  0  0  0  0  0  0  0  0  0  0  0
   -2.0420   -0.4051    3.5192 C   0  0  0  0  0  0  0  0  0  0  0  0
   -2.4341   -1.6921    3.1446 C   0  0  0  0  0  0  0  0  0  0  0  0
   -1.7147   -2.7918    3.6191 C   0  0  0  0  0  0  0  0  0  0  0  0
   -0.6159   -2.6120    4.4608 C   0  0  0  0  0  0  0  0  0  0  0  0
   -3.4741   -2.0051    2.3117 O   0  0  0  0  0  0  0  0  0  0  0  0
   -4.4229   -0.9698    2.0596 C   0  0  0  0  0  0  0  0  0  0  0  0
   -5.4920   -1.5301    1.1231 C   0  0  0  0  0  0  0  0  0  0  0  0
   -6.6139   -0.5236    0.8763 C   0  0  0  0  0  0  0  0  0  0  0  0
   -7.4679   -0.9335   -0.3307 C   0  0  0  0  0  0  0  0  0  0  0  0
   -8.6676   -0.1299   -0.5050 N   0  0  0  0  0  0  0  0  0  0  0  0
   -8.6693    1.2464   -0.6499 C   0  0  0  0  0  0  0  0  0  0  0  0
   -7.6560    2.2048   -0.7901 C   0  0  0  0  0  0  0  0  0  0  0  0
   -8.0410    3.5495   -0.8220 C   0  0  0  0  0  0  0  0  0  0  0  0
   -9.3836    3.9166   -0.7427 C   0  0  0  0  0  0  0  0  0  0  0  0
  -10.3845    2.9447   -0.6369 C   0  0  0  0  0  0  0  0  0  0  0  0
  -10.0143    1.5918   -0.5940 C   0  0  0  0  0  0  0  0  0  0  0  0
  -10.8035    0.4771   -0.5161 N   0  0  0  0  0  0  0  0  0  0  0  0
   -9.9865   -0.5593   -0.5405 C   0  0  0  0  0  0  0  0  0  0  0  0
  -10.3228   -1.9364   -0.6263 C   0  0  0  0  0  0  0  0  0  0  0  0
  -11.5952   -2.3345   -0.4652 C   0  0  0  0  0  0  0  0  0  0  0  0
  -11.9317   -3.7111   -0.5795 C   0  0  0  0  0  0  0  0  0  0  0  0
  -13.1889   -4.3047   -0.5210 C   0  0  0  0  0  0  0  0  0  0  0  0
  -13.0206   -5.6986   -0.6982 C   0  0  0  0  0  0  0  0  0  0  0  0
  -11.6717   -5.8992   -0.8304 C   0  0  0  0  0  0  0  0  0  0  0  0
  -11.0096   -4.7200   -0.7722 O   0  0  0  0  0  0  0  0  0  0  0  0
    0.6370   -1.1828    5.4747 H   0  0  0  0  0  0  0  0  0  0  0  0
   -0.6292    0.7795    4.6395 H   0  0  0  0  0  0  0  0  0  0  0  0
   -2.5658    0.4792    3.1731 H   0  0  0  0  0  0  0  0  0  0  0  0
   -2.0188   -3.7964    3.3350 H   0  0  0  0  0  0  0  0  0  0  0  0
   -0.0676   -3.4757    4.8268 H   0  0  0  0  0  0  0  0  0  0  0  0
   -3.9343   -0.1219    1.5651 H   0  0  0  0  0  0  0  0  0  0  0  0
   -4.8805   -0.6493    3.0033 H   0  0  0  0  0  0  0  0  0  0  0  0
   -5.9040   -2.4556    1.5439 H   0  0  0  0  0  0  0  0  0  0  0  0
   -5.0193   -1.8138    0.1744 H   0  0  0  0  0  0  0  0  0  0  0  0
   -6.1752    0.4656    0.7135 H   0  0  0  0  0  0  0  0  0  0  0  0
   -7.2369   -0.4450    1.7761 H   0  0  0  0  0  0  0  0  0  0  0  0
   -7.7501   -1.9812   -0.2095 H   0  0  0  0  0  0  0  0  0  0  0  0
   -6.8945   -0.8548   -1.2614 H   0  0  0  0  0  0  0  0  0  0  0  0
   -6.6086    1.9355   -0.8643 H   0  0  0  0  0  0  0  0  0  0  0  0
   -7.2779    4.3194   -0.9116 H   0  0  0  0  0  0  0  0  0  0  0  0
   -9.6583    4.9684   -0.7630 H   0  0  0  0  0  0  0  0  0  0  0  0
  -11.4317    3.2213   -0.5897 H   0  0  0  0  0  0  0  0  0  0  0  0
   -9.5648   -2.6720   -0.8688 H   0  0  0  0  0  0  0  0  0  0  0  0
  -12.3865   -1.6181   -0.2522 H   0  0  0  0  0  0  0  0  0  0  0  0
  -14.1209   -3.7775   -0.3684 H   0  0  0  0  0  0  0  0  0  0  0  0
  -13.7847   -6.4632   -0.7127 H   0  0  0  0  0  0  0  0  0  0  0  0
  -11.0514   -6.7733   -0.9661 H   0  0  0  0  0  0  0  0  0  0  0  0
  1  2  2  0  0  0  0
  1  6  1  0  0  0  0
  1 28  1  0  0  0  0
  2  3  1  0  0  0  0
  2 29  1  0  0  0  0
  3  4  2  0  0  0  0
  3 30  1  0  0  0  0
  4  5  1  0  0  0  0
  4  7  1  0  0  0  0
  5  6  2  0  0  0  0
  5 31  1  0  0  0  0
  6 32  1  0  0  0  0
  7  8  1  0  0  0  0
  8  9  1  0  0  0  0
  8 33  1  0  0  0  0
  8 34  1  0  0  0  0
  9 10  1  0  0  0  0
  9 35  1  0  0  0  0
  9 36  1  0  0  0  0
 10 11  1  0  0  0  0
 10 37  1  0  0  0  0
 10 38  1  0  0  0  0
 11 12  1  0  0  0  0
 11 39  1  0  0  0  0
 11 40  1  0  0  0  0
 12 13  1  0  0  0  0
 12 20  1  0  0  0  0
 13 14  2  0  0  0  0
 13 18  1  0  0  0  0
 14 15  1  0  0  0  0
 14 41  1  0  0  0  0
 15 16  2  0  0  0  0
 15 42  1  0  0  0  0
 16 17  1  0  0  0  0
 16 43  1  0  0  0  0
 17 18  2  0  0  0  0
 17 44  1  0  0  0  0
 18 19  1  0  0  0  0
 19 20  2  0  0  0  0
 20 21  1  0  0  0  0
 21 22  2  0  0  0  0
 21 45  1  0  0  0  0
 22 23  1  0  0  0  0
 22 46  1  0  0  0  0
 23 24  2  0  0  0  0
 23 27  1  0  0  0  0
 24 25  1  0  0  0  0
 24 47  1  0  0  0  0
 25 26  2  0  0  0  0
 25 48  1  0  0  0  0
 26 27  1  0  0  0  0
 26 49  1  0  0  0  0
M  END
