
 OpenBabel10072620093D

 33 35  0  0  0  0  0  0  0  0999 V2000
    1.0827   -0.7903   -0.1886 C   0  0  0  0  0  0  0  0  0  0  0  0
    0.0405   -1.6937    0.0205 C   0  0  0  0  0  0  0  0  0  0  0  0
   -1.2538   -1.2284    0.2693 C   0  0  0  0  0  0  0  0  0  0  0  0
   -1.5080    0.1496    0.2947 C   0  0  0  0  0  0  0  0  0  0  0  0
   -0.4525    1.0507    0.0998 C   0  0  0  0  0  0  0  0  0  0  0  0
    0.8389    0.5812   -0.1428 C   0  0  0  0  0  0  0  0  0  0  0  0
   -2.8611    0.7136    0.5615 C   0  0  0  0  0  0  0  0  0  0  0  0
   -2.9392    1.7588    1.1958 O   0  0  0  0  0  0  0  0  0  0  0  0
   -3.9393   -0.0552    0.1276 N   0  0  0  0  0  0  0  0  0  0  0  0
   -5.2701    0.3295   -0.1163 C   0  0  0  0  0  0  0  0  0  0  0  0
   -5.8385    1.9000   -0.1141 S   0  0  0  0  0  0  0  0  0  0  0  0
   -6.0343   -0.8286   -0.2998 N   0  0  0  0  0  0  0  0  0  0  0  0
   -7.3193   -0.9812   -0.8696 C   0  0  0  0  0  0  0  0  0  0  0  0
   -7.8004   -0.1636   -1.9010 C   0  0  0  0  0  0  0  0  0  0  0  0
   -9.0798   -0.4142   -2.4348 C   0  0  0  0  0  0  0  0  0  0  0  0
   -9.8314   -1.4704   -1.9375 C   0  0  0  0  0  0  0  0  0  0  0  0
   -9.3734   -2.3170   -0.9271 C   0  0  0  0  0  0  0  0  0  0  0  0
   -8.0949   -2.0573   -0.4156 C   0  0  0  0  0  0  0  0  0  0  0  0
  -11.0042   -1.4457   -2.6462 N   0  0  0  0  0  0  0  0  0  0  0  0
  -11.0640   -0.4761   -3.5760 N   0  0  0  0  0  0  0  0  0  0  0  0
   -9.8931    0.1533   -3.4415 C   0  0  0  0  0  0  0  0  0  0  0  0
    2.0909   -1.1544   -0.3729 H   0  0  0  0  0  0  0  0  0  0  0  0
    0.2423   -2.7624    0.0033 H   0  0  0  0  0  0  0  0  0  0  0  0
   -2.0322   -1.9561    0.4746 H   0  0  0  0  0  0  0  0  0  0  0  0
   -0.6350    2.1236    0.1406 H   0  0  0  0  0  0  0  0  0  0  0  0
    1.6542    1.2859   -0.2900 H   0  0  0  0  0  0  0  0  0  0  0  0
   -3.7049   -0.9034   -0.3636 H   0  0  0  0  0  0  0  0  0  0  0  0
   -5.7503   -1.5873    0.3085 H   0  0  0  0  0  0  0  0  0  0  0  0
   -7.2058    0.6382   -2.3228 H   0  0  0  0  0  0  0  0  0  0  0  0
   -9.9737   -3.1380   -0.5499 H   0  0  0  0  0  0  0  0  0  0  0  0
   -7.7243   -2.7070    0.3745 H   0  0  0  0  0  0  0  0  0  0  0  0
  -11.7976   -2.0680   -2.5507 H   0  0  0  0  0  0  0  0  0  0  0  0
   -9.6753    0.9997   -4.0796 H   0  0  0  0  0  0  0  0  0  0  0  0
  1  2  2  0  0  0  0
  1  6  1  0  0  0  0
  1 22  1  0  0  0  0
  2  3  1  0  0  0  0
  2 23  1  0  0  0  0
  3  4  2  0  0  0  0
  3 24  1  0  0  0  0
  4  5  1  0  0  0  0
  4  7  1  0  0  0  0
  5  6  2  0  0  0  0
  5 25  1  0  0  0  0
  6 26  1  0  0  0  0
  7  8  2  0  0  0  0
  7  9  1  0  0  0  0
  9 10  1  0  0  0  0
  9 27  1  0  0  0  0
 10 11  2  0  0  0  0
 10 12  1  0  0  0  0
 12 13  1  0  0  0  0
 12 28  1  0  0  0  0
 13 14  2  0  0  0  0
 13 18  1  0  0  0  0
 14 15  1  0  0  0  0
 14 29  1  0  0  0  0
 15 16  2  0  0  0  0
 15 21  1  0  0  0  0
 16 17  1  0  0  0  0
 16 19  1  0  0  0  0
 17 18  2  0  0  0  0
 17 30  1  0  0  0  0
 18 31  1  0  0  0  0
 19 20  1  0  0  0  0
 19 32  1  0  0  0  0
 20 21  2  0  0  0  0
 21 33  1  0  0  0  0
M  END
