
 OpenBabel10072619553D

 64 67  0  0  1  0  0  0  0  0999 V2000
    7.7751    8.4758   -4.1023 C   0  0  0  0  0  0  0  0  0  0  0  0
    6.9535    7.3274   -4.7008 C   0  0  0  0  0  0  0  0  0  0  0  0
    5.4551    7.6140   -4.6471 C   0  0  0  0  0  0  0  0  0  0  0  0
    7.4778    7.1969   -6.1752 C   0  0  0  0  0  0  0  0  0  0  0  0
    8.7150    6.9265   -6.3042 O   0  0  0  0  0  0  0  0  0  0  0  0
    6.6354    7.4075   -7.0938 O   0  5  0  0  0  0  0  0  0  0  0  0
    7.2334    6.0802   -4.0366 O   0  0  0  0  0  0  0  0  0  0  0  0
    6.9928    6.1546   -2.6463 N   0  0  0  0  0  0  0  0  0  0  0  0
    7.9801    5.6218   -1.9821 C   0  0  0  0  0  0  0  0  0  0  0  0
    9.1602    5.0673   -2.6333 C   0  0  0  0  0  0  0  0  0  0  0  0
   10.4480    5.5421   -2.4623 C   0  0  0  0  0  0  0  0  0  0  0  0
   11.4923    4.7823   -3.5945 S   0  0  0  0  0  0  0  0  0  0  0  0
   10.1680    3.8566   -4.1729 C   0  0  0  0  0  0  0  0  0  0  0  0
    9.0591    3.9812   -3.4900 N   0  0  0  0  0  0  0  0  0  0  0  0
   10.2647    3.0768   -5.2674 N   0  0  0  0  0  0  0  0  0  0  0  0
    7.9040    5.6637   -0.4587 C   0  0  0  0  0  0  0  0  0  0  0  0
    7.4260    6.6171    0.1428 O   0  0  0  0  0  0  0  0  0  0  0  0
    8.4513    4.5753    0.2016 N   0  0  0  0  0  0  0  0  0  0  0  0
    8.4835    4.5325    1.6790 C   0  0  2  0  0  0  0  0  0  0  0  0
    9.1113    5.7549    2.4332 C   0  0  1  0  0  0  0  0  0  0  0  0
    9.8882    4.7739    3.1930 N   0  0  0  0  0  0  0  0  0  0  0  0
    9.6348    3.7361    2.3551 C   0  0  0  0  0  0  0  0  0  0  0  0
   10.2128    2.6827    2.2239 O   0  0  0  0  0  0  0  0  0  0  0  0
   10.9672    5.0849    3.9782 C   0  0  0  0  0  0  0  0  0  0  0  0
   11.4257    6.3682    4.0943 C   0  0  0  0  0  0  0  0  0  0  0  0
   10.9347    7.4844    3.1852 C   0  0  0  0  0  0  0  0  0  0  0  0
   10.2967    6.9243    1.5693 S   0  0  3  0  0  0  0  0  0  0  0  0
   11.3500    6.0532    0.9439 O   0  0  0  0  0  0  0  0  0  0  0  0
   12.5543    6.7077    5.0607 C   0  0  0  0  0  0  0  0  0  0  0  0
   12.8316    8.4800    5.3958 S   0  0  0  0  0  0  0  0  0  0  0  0
   14.3470    8.4795    6.3421 C   0  0  0  0  0  0  0  0  0  0  0  0
   14.8661    7.3748    7.0129 C   0  0  0  0  0  0  0  0  0  0  0  0
   16.0484    7.4943    7.7393 C   0  0  0  0  0  0  0  0  0  0  0  0
   16.6993    8.6766    7.8064 N   0  3  0  0  0  0  0  0  0  0  0  0
   16.2149    9.7659    7.1706 C   0  0  0  0  0  0  0  0  0  0  0  0
   15.0379    9.6888    6.4332 C   0  0  0  0  0  0  0  0  0  0  0  0
   17.9356    8.7964    8.5985 C   0  0  0  0  0  0  0  0  0  0  0  0
   11.6523    3.9833    4.7541 C   0  0  0  0  0  0  0  0  0  0  0  0
   12.0043    4.1081    5.9208 O   0  0  0  0  0  0  0  0  0  0  0  0
   11.9587    2.8764    4.0550 O   0  0  0  0  0  0  0  0  0  0  0  0
    7.6969    9.3847   -4.7084 H   0  0  0  0  0  0  0  0  0  0  0  0
    8.8358    8.2110   -4.0218 H   0  0  0  0  0  0  0  0  0  0  0  0
    7.4443    8.7215   -3.0874 H   0  0  0  0  0  0  0  0  0  0  0  0
    5.1936    8.5256   -5.1947 H   0  0  0  0  0  0  0  0  0  0  0  0
    5.1064    7.7317   -3.6151 H   0  0  0  0  0  0  0  0  0  0  0  0
    4.8886    6.7783   -5.0750 H   0  0  0  0  0  0  0  0  0  0  0  0
   10.8011    6.3373   -1.8222 H   0  0  0  0  0  0  0  0  0  0  0  0
   10.8686    3.4715   -5.9832 H   0  0  0  0  0  0  0  0  0  0  0  0
    9.3414    2.9190   -5.6677 H   0  0  0  0  0  0  0  0  0  0  0  0
    8.8149    3.8039   -0.3546 H   0  0  0  0  0  0  0  0  0  0  0  0
    7.5077    4.2202    2.0718 H   0  0  0  0  0  0  0  0  0  0  0  0
    8.3822    6.2927    3.0524 H   0  0  0  0  0  0  0  0  0  0  0  0
   11.7556    8.1497    2.9012 H   0  0  0  0  0  0  0  0  0  0  0  0
   10.1557    8.0755    3.6772 H   0  0  0  0  0  0  0  0  0  0  0  0
   13.4867    6.2714    4.6858 H   0  0  0  0  0  0  0  0  0  0  0  0
   12.3137    6.3072    6.0469 H   0  0  0  0  0  0  0  0  0  0  0  0
   14.3695    6.4074    7.0008 H   0  0  0  0  0  0  0  0  0  0  0  0
   16.4727    6.6476    8.2732 H   0  0  0  0  0  0  0  0  0  0  0  0
   16.7751   10.6933    7.2626 H   0  0  0  0  0  0  0  0  0  0  0  0
   14.6671   10.5824    5.9323 H   0  0  0  0  0  0  0  0  0  0  0  0
   18.3012    7.8035    8.8720 H   0  0  0  0  0  0  0  0  0  0  0  0
   17.6955    9.3745    9.4949 H   0  0  0  0  0  0  0  0  0  0  0  0
   18.6845    9.3094    7.9892 H   0  0  0  0  0  0  0  0  0  0  0  0
   11.5310    2.7778    3.1710 H   0  0  0  0  0  0  0  0  0  0  0  0
  1  2  1  0  0  0  0
  1 41  1  0  0  0  0
  1 42  1  0  0  0  0
  1 43  1  0  0  0  0
  2  3  1  0  0  0  0
  2  4  1  0  0  0  0
  2  7  1  0  0  0  0
  3 44  1  0  0  0  0
  3 45  1  0  0  0  0
  3 46  1  0  0  0  0
  4  5  2  0  0  0  0
  4  6  1  0  0  0  0
  7  8  1  0  0  0  0
  8  9  2  0  0  0  0
  9 10  1  0  0  0  0
  9 16  1  0  0  0  0
 10 11  2  0  0  0  0
 10 14  1  0  0  0  0
 11 12  1  0  0  0  0
 11 47  1  0  0  0  0
 12 13  1  0  0  0  0
 13 14  2  0  0  0  0
 13 15  1  0  0  0  0
 15 48  1  0  0  0  0
 15 49  1  0  0  0  0
 16 17  2  0  0  0  0
 16 18  1  0  0  0  0
 18 50  1  0  0  0  0
 19 20  1  0  0  0  0
 19 22  1  0  0  0  0
 19 18  1  0  0  0  0
 19 51  1  1  0  0  0
 20 21  1  0  0  0  0
 20 27  1  0  0  0  0
 20 52  1  1  0  0  0
 21 22  1  0  0  0  0
 21 24  1  0  0  0  0
 22 23  2  0  0  0  0
 24 25  2  0  0  0  0
 24 38  1  0  0  0  0
 25 26  1  0  0  0  0
 25 29  1  0  0  0  0
 26 27  1  0  0  0  0
 26 53  1  0  0  0  0
 26 54  1  0  0  0  0
 27 28  2  0  0  0  0
 29 30  1  0  0  0  0
 29 55  1  0  0  0  0
 29 56  1  0  0  0  0
 30 31  1  0  0  0  0
 31 32  2  0  0  0  0
 31 36  1  0  0  0  0
 32 33  1  0  0  0  0
 32 57  1  0  0  0  0
 33 34  2  0  0  0  0
 33 58  1  0  0  0  0
 34 35  1  0  0  0  0
 34 37  1  0  0  0  0
 35 36  2  0  0  0  0
 35 59  1  0  0  0  0
 36 60  1  0  0  0  0
 37 61  1  0  0  0  0
 37 62  1  0  0  0  0
 37 63  1  0  0  0  0
 38 39  2  0  0  0  0
 38 40  1  0  0  0  0
 40 64  1  0  0  0  0
M  CHG  2   6  -1  34   1
M  END
