
 OpenBabel10072620073D

 36 37  0  0  0  0  0  0  0  0999 V2000
    1.3049   -1.0766    2.3853 C   0  0  0  0  0  0  0  0  0  0  0  0
    0.0630   -0.9775    1.5471 C   0  0  0  0  0  0  0  0  0  0  0  0
    0.1550   -0.9828    0.1505 C   0  0  0  0  0  0  0  0  0  0  0  0
   -0.9950   -0.8858   -0.6338 C   0  0  0  0  0  0  0  0  0  0  0  0
   -2.2519   -0.7846   -0.0295 C   0  0  0  0  0  0  0  0  0  0  0  0
   -2.3572   -0.8254    1.3660 C   0  0  0  0  0  0  0  0  0  0  0  0
   -1.2019   -0.9250    2.1464 C   0  0  0  0  0  0  0  0  0  0  0  0
   -3.4405   -0.6141   -0.9111 C   0  0  0  0  0  0  0  0  0  0  0  0
   -3.3995   -0.9937   -2.0743 O   0  0  0  0  0  0  0  0  0  0  0  0
   -4.4849    0.1106   -0.3549 N   0  0  0  0  0  0  0  0  0  0  0  0
   -5.5938    0.5541   -1.0934 C   0  0  0  0  0  0  0  0  0  0  0  0
   -6.3493   -0.2080   -1.9149 C   0  0  0  0  0  0  0  0  0  0  0  0
   -7.6479    0.3710   -2.9131 Cl  0  0  0  0  0  0  0  0  0  0  0  0
   -6.2148   -1.9514   -1.9386 Cl  0  0  0  0  0  0  0  0  0  0  0  0
   -6.0058    2.2613   -0.8746 S   0  0  0  0  0  0  0  0  0  0  0  0
   -5.1701    2.7513    0.2149 O   0  0  0  0  0  0  0  0  0  0  0  0
   -6.0033    2.9521   -2.1486 O   0  0  0  0  0  0  0  0  0  0  0  0
   -7.6674    2.2782   -0.2280 C   0  0  0  0  0  0  0  0  0  0  0  0
   -7.9542    1.5850    0.9547 C   0  0  0  0  0  0  0  0  0  0  0  0
   -9.2487    1.6273    1.4715 C   0  0  0  0  0  0  0  0  0  0  0  0
  -10.2288    2.3649    0.8141 C   0  0  0  0  0  0  0  0  0  0  0  0
   -9.9454    3.0612   -0.3558 C   0  0  0  0  0  0  0  0  0  0  0  0
   -8.6562    3.0220   -0.8831 C   0  0  0  0  0  0  0  0  0  0  0  0
  -11.4667    2.4106    1.3216 F   0  0  0  0  0  0  0  0  0  0  0  0
    2.1144   -0.4909    1.9372 H   0  0  0  0  0  0  0  0  0  0  0  0
    1.6267   -2.1186    2.4780 H   0  0  0  0  0  0  0  0  0  0  0  0
    1.1338   -0.6740    3.3893 H   0  0  0  0  0  0  0  0  0  0  0  0
    1.1226   -1.0533   -0.3409 H   0  0  0  0  0  0  0  0  0  0  0  0
   -0.9095   -0.8742   -1.7183 H   0  0  0  0  0  0  0  0  0  0  0  0
   -3.3246   -0.8014    1.8607 H   0  0  0  0  0  0  0  0  0  0  0  0
   -1.2927   -0.9545    3.2303 H   0  0  0  0  0  0  0  0  0  0  0  0
   -4.1768    0.7852    0.3506 H   0  0  0  0  0  0  0  0  0  0  0  0
   -7.1840    1.0383    1.4910 H   0  0  0  0  0  0  0  0  0  0  0  0
   -9.5013    1.1021    2.3877 H   0  0  0  0  0  0  0  0  0  0  0  0
  -10.7256    3.6380   -0.8431 H   0  0  0  0  0  0  0  0  0  0  0  0
   -8.4318    3.5714   -1.7954 H   0  0  0  0  0  0  0  0  0  0  0  0
  1  2  1  0  0  0  0
  1 25  1  0  0  0  0
  1 26  1  0  0  0  0
  1 27  1  0  0  0  0
  2  3  2  0  0  0  0
  2  7  1  0  0  0  0
  3  4  1  0  0  0  0
  3 28  1  0  0  0  0
  4  5  2  0  0  0  0
  4 29  1  0  0  0  0
  5  6  1  0  0  0  0
  5  8  1  0  0  0  0
  6  7  2  0  0  0  0
  6 30  1  0  0  0  0
  7 31  1  0  0  0  0
  8  9  2  0  0  0  0
  8 10  1  0  0  0  0
 10 11  1  0  0  0  0
 10 32  1  0  0  0  0
 11 12  2  0  0  0  0
 11 15  1  0  0  0  0
 12 13  1  0  0  0  0
 12 14  1  0  0  0  0
 15 16  2  0  0  0  0
 15 17  2  0  0  0  0
 15 18  1  0  0  0  0
 18 19  2  0  0  0  0
 18 23  1  0  0  0  0
 19 20  1  0  0  0  0
 19 33  1  0  0  0  0
 20 21  2  0  0  0  0
 20 34  1  0  0  0  0
 21 22  1  0  0  0  0
 21 24  1  0  0  0  0
 22 23  2  0  0  0  0
 22 35  1  0  0  0  0
 23 36  1  0  0  0  0
M  END
