
 OpenBabel10072619593D

 35 36  0  0  0  0  0  0  0  0999 V2000
    1.2057    0.7593   -0.5543 C   0  0  0  0  0  0  0  0  0  0  0  0
    2.1967   -0.5736    0.1767 S   0  0  0  0  0  0  0  0  0  0  0  0
    3.0263   -1.2185   -1.2689 C   0  0  0  0  0  0  0  0  0  0  0  0
    3.5714   -0.3943   -2.2538 C   0  0  0  0  0  0  0  0  0  0  0  0
    4.1982   -0.9534   -3.3674 C   0  0  0  0  0  0  0  0  0  0  0  0
    4.3046   -2.3404   -3.4954 C   0  0  0  0  0  0  0  0  0  0  0  0
    3.7960   -3.1806   -2.5056 C   0  0  0  0  0  0  0  0  0  0  0  0
    3.1563   -2.6088   -1.3961 C   0  0  0  0  0  0  0  0  0  0  0  0
    3.8728   -4.5881   -2.5524 N   0  0  0  0  0  0  0  0  0  0  0  0
    4.5220   -5.3681   -3.4830 C   0  0  0  0  0  0  0  0  0  0  0  0
    5.2089   -4.9853   -4.4200 O   0  0  0  0  0  0  0  0  0  0  0  0
    4.3201   -6.7077   -3.2201 N   0  0  0  0  0  0  0  0  0  0  0  0
    4.8915   -7.7012   -4.1007 C   0  0  0  0  0  0  0  0  0  0  0  0
    4.7499   -9.0738   -3.4951 C   0  0  0  0  0  0  0  0  0  0  0  0
    5.5423   -9.4389   -2.3945 C   0  0  0  0  0  0  0  0  0  0  0  0
    5.3998  -10.6941   -1.7927 C   0  0  0  0  0  0  0  0  0  0  0  0
    4.4538  -11.5976   -2.2862 C   0  0  0  0  0  0  0  0  0  0  0  0
    3.6623  -11.2424   -3.3826 C   0  0  0  0  0  0  0  0  0  0  0  0
    3.8074   -9.9880   -3.9830 C   0  0  0  0  0  0  0  0  0  0  0  0
    4.2001  -13.1554   -1.5829 Cl  0  0  0  0  0  0  0  0  0  0  0  0
    6.4172  -11.0611   -0.4450 Cl  0  0  0  0  0  0  0  0  0  0  0  0
    0.4663    1.0941    0.1787 H   0  0  0  0  0  0  0  0  0  0  0  0
    0.6745    0.4070   -1.4428 H   0  0  0  0  0  0  0  0  0  0  0  0
    1.8356    1.6137   -0.8161 H   0  0  0  0  0  0  0  0  0  0  0  0
    3.5281    0.6870   -2.1683 H   0  0  0  0  0  0  0  0  0  0  0  0
    4.6121   -0.3078   -4.1381 H   0  0  0  0  0  0  0  0  0  0  0  0
    4.7994   -2.7315   -4.3790 H   0  0  0  0  0  0  0  0  0  0  0  0
    2.7464   -3.2493   -0.6192 H   0  0  0  0  0  0  0  0  0  0  0  0
    3.5184   -5.0843   -1.7486 H   0  0  0  0  0  0  0  0  0  0  0  0
    3.4286   -6.9407   -2.8102 H   0  0  0  0  0  0  0  0  0  0  0  0
    5.9493   -7.4726   -4.2809 H   0  0  0  0  0  0  0  0  0  0  0  0
    4.3746   -7.6386   -5.0657 H   0  0  0  0  0  0  0  0  0  0  0  0
    6.2702   -8.7313   -1.9994 H   0  0  0  0  0  0  0  0  0  0  0  0
    2.9250  -11.9405   -3.7739 H   0  0  0  0  0  0  0  0  0  0  0  0
    3.1758   -9.7308   -4.8318 H   0  0  0  0  0  0  0  0  0  0  0  0
  1  2  1  0  0  0  0
  1 22  1  0  0  0  0
  1 23  1  0  0  0  0
  1 24  1  0  0  0  0
  2  3  1  0  0  0  0
  3  4  2  0  0  0  0
  3  8  1  0  0  0  0
  4  5  1  0  0  0  0
  4 25  1  0  0  0  0
  5  6  2  0  0  0  0
  5 26  1  0  0  0  0
  6  7  1  0  0  0  0
  6 27  1  0  0  0  0
  7  8  2  0  0  0  0
  7  9  1  0  0  0  0
  8 28  1  0  0  0  0
  9 10  1  0  0  0  0
  9 29  1  0  0  0  0
 10 11  2  0  0  0  0
 10 12  1  0  0  0  0
 12 13  1  0  0  0  0
 12 30  1  0  0  0  0
 13 14  1  0  0  0  0
 13 31  1  0  0  0  0
 13 32  1  0  0  0  0
 14 15  2  0  0  0  0
 14 19  1  0  0  0  0
 15 16  1  0  0  0  0
 15 33  1  0  0  0  0
 16 17  2  0  0  0  0
 16 21  1  0  0  0  0
 17 18  1  0  0  0  0
 17 20  1  0  0  0  0
 18 19  2  0  0  0  0
 18 34  1  0  0  0  0
 19 35  1  0  0  0  0
M  END
