
 OpenBabel10072616273D

 33 33  0  0  0  0  0  0  0  0999 V2000
    1.0342    0.7255    0.4008 C   0  0  0  0  0  0  0  0  0  0  0  0
    2.5355    0.4993    0.3195 C   0  0  0  0  0  0  0  0  0  0  0  0
    3.2002    1.4846   -0.6407 C   0  0  0  0  0  0  0  0  0  0  0  0
    4.7006    1.2211   -0.7560 C   0  0  0  0  0  0  0  0  0  0  0  0
    5.2822    2.1952   -1.7089 N   0  0  0  0  0  0  0  0  0  0  0  0
    6.9454    1.9699   -1.9948 S   0  0  0  0  0  0  0  0  0  0  0  0
    7.5998    2.5013   -0.8182 O   0  0  0  0  0  0  0  0  0  0  0  0
    7.1317    0.5902   -2.3876 O   0  0  0  0  0  0  0  0  0  0  0  0
    7.3068    3.0064   -3.3315 C   0  0  0  0  0  0  0  0  0  0  0  0
    6.6753    2.8174   -4.5000 C   0  0  0  0  0  0  0  0  0  0  0  0
    6.8920    3.6388   -5.6997 C   0  0  0  0  0  0  0  0  0  0  0  0
    8.1237    4.2414   -5.9903 C   0  0  0  0  0  0  0  0  0  0  0  0
    8.2926    4.9930   -7.1566 C   0  0  0  0  0  0  0  0  0  0  0  0
    7.2363    5.1395   -8.0522 C   0  0  0  0  0  0  0  0  0  0  0  0
    6.0120    4.5316   -7.7851 C   0  0  0  0  0  0  0  0  0  0  0  0
    5.8423    3.7818   -6.6178 C   0  0  0  0  0  0  0  0  0  0  0  0
    0.5799    0.0107    1.0944 H   0  0  0  0  0  0  0  0  0  0  0  0
    0.5643    0.5922   -0.5789 H   0  0  0  0  0  0  0  0  0  0  0  0
    0.8072    1.7356    0.7562 H   0  0  0  0  0  0  0  0  0  0  0  0
    2.7249   -0.5284   -0.0112 H   0  0  0  0  0  0  0  0  0  0  0  0
    2.9707    0.6031    1.3202 H   0  0  0  0  0  0  0  0  0  0  0  0
    3.0287    2.5117   -0.2943 H   0  0  0  0  0  0  0  0  0  0  0  0
    2.7366    1.4054   -1.6319 H   0  0  0  0  0  0  0  0  0  0  0  0
    4.8643    0.2012   -1.1194 H   0  0  0  0  0  0  0  0  0  0  0  0
    5.1769    1.3363    0.2238 H   0  0  0  0  0  0  0  0  0  0  0  0
    5.1395    3.1563   -1.3932 H   0  0  0  0  0  0  0  0  0  0  0  0
    8.0391    3.7802   -3.1574 H   0  0  0  0  0  0  0  0  0  0  0  0
    5.9379    2.0207   -4.5966 H   0  0  0  0  0  0  0  0  0  0  0  0
    8.9751    4.1241   -5.3250 H   0  0  0  0  0  0  0  0  0  0  0  0
    9.2527    5.4574   -7.3676 H   0  0  0  0  0  0  0  0  0  0  0  0
    7.3700    5.7201   -8.9612 H   0  0  0  0  0  0  0  0  0  0  0  0
    5.1889    4.6369   -8.4874 H   0  0  0  0  0  0  0  0  0  0  0  0
    4.8772    3.3149   -6.4322 H   0  0  0  0  0  0  0  0  0  0  0  0
  1  2  1  0  0  0  0
  1 17  1  0  0  0  0
  1 18  1  0  0  0  0
  1 19  1  0  0  0  0
  2  3  1  0  0  0  0
  2 20  1  0  0  0  0
  2 21  1  0  0  0  0
  3  4  1  0  0  0  0
  3 22  1  0  0  0  0
  3 23  1  0  0  0  0
  4  5  1  0  0  0  0
  4 24  1  0  0  0  0
  4 25  1  0  0  0  0
  5  6  1  0  0  0  0
  5 26  1  0  0  0  0
  6  7  2  0  0  0  0
  6  8  2  0  0  0  0
  6  9  1  0  0  0  0
  9 10  2  0  0  0  0
  9 27  1  0  0  0  0
 10 11  1  0  0  0  0
 10 28  1  0  0  0  0
 11 12  2  0  0  0  0
 11 16  1  0  0  0  0
 12 13  1  0  0  0  0
 12 29  1  0  0  0  0
 13 14  2  0  0  0  0
 13 30  1  0  0  0  0
 14 15  1  0  0  0  0
 14 31  1  0  0  0  0
 15 16  2  0  0  0  0
 15 32  1  0  0  0  0
 16 33  1  0  0  0  0
M  END
