
 OpenBabel10072619503D

 56 59  0  0  0  0  0  0  0  0999 V2000
    2.6985   -0.2606    1.6246 C   0  0  0  0  0  0  0  0  0  0  0  0
    1.2611   -0.2084    1.2023 C   0  0  0  0  0  0  0  0  0  0  0  0
    0.6408    1.0261    0.9683 C   0  0  0  0  0  0  0  0  0  0  0  0
   -0.7177    1.1175    0.6091 C   0  0  0  0  0  0  0  0  0  0  0  0
   -1.4711   -0.0781    0.5262 C   0  0  0  0  0  0  0  0  0  0  0  0
   -0.8470   -1.3109    0.7782 C   0  0  0  0  0  0  0  0  0  0  0  0
    0.5040   -1.3756    1.1108 C   0  0  0  0  0  0  0  0  0  0  0  0
   -2.9511   -0.0687    0.2496 C   0  0  0  0  0  0  0  0  0  0  0  0
   -1.3977    2.4569    0.3769 C   0  0  0  0  0  0  0  0  0  0  0  0
   -0.4943    3.6026    0.2433 N   0  0  0  0  0  0  0  0  0  0  0  0
    0.2023    3.9537   -0.9050 C   0  0  0  0  0  0  0  0  0  0  0  0
    0.9087    5.1294   -0.6154 C   0  0  0  0  0  0  0  0  0  0  0  0
    1.7151    5.7102   -1.6171 C   0  0  0  0  0  0  0  0  0  0  0  0
    1.7864    5.0980   -2.8715 C   0  0  0  0  0  0  0  0  0  0  0  0
    1.0830    3.9275   -3.1415 C   0  0  0  0  0  0  0  0  0  0  0  0
    0.2796    3.3346   -2.1626 C   0  0  0  0  0  0  0  0  0  0  0  0
    2.8507    5.8797   -4.2287 Br  0  0  0  0  0  0  0  0  0  0  0  0
    0.5987    5.4717    0.7254 C   0  0  0  0  0  0  0  0  0  0  0  0
   -0.2588    4.5239    1.2377 C   0  0  0  0  0  0  0  0  0  0  0  0
   -0.8180    4.3963    2.4383 O   0  0  0  0  0  0  0  0  0  0  0  0
    1.1229    6.6034    1.3715 N   0  0  0  0  0  0  0  0  0  0  0  0
    0.4390    6.9768    2.3513 N   0  0  0  0  0  0  0  0  0  0  0  0
    0.9698    8.1135    2.9331 C   0  0  0  0  0  0  0  0  0  0  0  0
    1.6204    8.0486    4.4815 S   0  0  0  0  0  0  0  0  0  0  0  0
    0.7842    9.2268    2.1434 N   0  0  0  0  0  0  0  0  0  0  0  0
    1.1370   10.5914    2.2275 C   0  0  0  0  0  0  0  0  0  0  0  0
    1.9741   11.1509    3.1940 C   0  0  0  0  0  0  0  0  0  0  0  0
    2.2755   12.5161    3.1628 C   0  0  0  0  0  0  0  0  0  0  0  0
    1.7374   13.3339    2.1749 C   0  0  0  0  0  0  0  0  0  0  0  0
    0.8905   12.7946    1.2089 C   0  0  0  0  0  0  0  0  0  0  0  0
    0.5976   11.4279    1.2198 C   0  0  0  0  0  0  0  0  0  0  0  0
   -0.2113   10.7969    0.2991 O   0  0  0  0  0  0  0  0  0  0  0  0
   -0.7572   11.6011   -0.7412 C   0  0  0  0  0  0  0  0  0  0  0  0
    3.2730    0.5440    1.1538 H   0  0  0  0  0  0  0  0  0  0  0  0
    3.1617   -1.2072    1.3277 H   0  0  0  0  0  0  0  0  0  0  0  0
    2.7713   -0.1571    2.7115 H   0  0  0  0  0  0  0  0  0  0  0  0
    1.2420    1.9267    1.0845 H   0  0  0  0  0  0  0  0  0  0  0  0
   -1.4204   -2.2351    0.7345 H   0  0  0  0  0  0  0  0  0  0  0  0
    0.9571   -2.3435    1.3124 H   0  0  0  0  0  0  0  0  0  0  0  0
   -3.1855    0.5246   -0.6419 H   0  0  0  0  0  0  0  0  0  0  0  0
   -3.4884    0.3402    1.1147 H   0  0  0  0  0  0  0  0  0  0  0  0
   -3.3346   -1.0810    0.0646 H   0  0  0  0  0  0  0  0  0  0  0  0
   -2.0831    2.6651    1.2070 H   0  0  0  0  0  0  0  0  0  0  0  0
   -1.9878    2.4359   -0.5468 H   0  0  0  0  0  0  0  0  0  0  0  0
    2.2687    6.6220   -1.4104 H   0  0  0  0  0  0  0  0  0  0  0  0
    1.1532    3.4572   -4.1203 H   0  0  0  0  0  0  0  0  0  0  0  0
   -0.2592    2.4147   -2.3752 H   0  0  0  0  0  0  0  0  0  0  0  0
   -0.4808    5.1444    2.9709 H   0  0  0  0  0  0  0  0  0  0  0  0
    0.2477    9.0195    1.3028 H   0  0  0  0  0  0  0  0  0  0  0  0
    2.4321   10.5703    3.9830 H   0  0  0  0  0  0  0  0  0  0  0  0
    2.9392   12.9358    3.9149 H   0  0  0  0  0  0  0  0  0  0  0  0
    1.9769   14.3943    2.1576 H   0  0  0  0  0  0  0  0  0  0  0  0
    0.4731   13.4665    0.4672 H   0  0  0  0  0  0  0  0  0  0  0  0
    0.0349   12.0183   -1.3729 H   0  0  0  0  0  0  0  0  0  0  0  0
   -1.3996   12.3905   -0.3361 H   0  0  0  0  0  0  0  0  0  0  0  0
   -1.3808   10.9555   -1.3676 H   0  0  0  0  0  0  0  0  0  0  0  0
  1  2  1  0  0  0  0
  1 34  1  0  0  0  0
  1 35  1  0  0  0  0
  1 36  1  0  0  0  0
  2  3  2  0  0  0  0
  2  7  1  0  0  0  0
  3  4  1  0  0  0  0
  3 37  1  0  0  0  0
  4  5  2  0  0  0  0
  4  9  1  0  0  0  0
  5  6  1  0  0  0  0
  5  8  1  0  0  0  0
  6  7  2  0  0  0  0
  6 38  1  0  0  0  0
  7 39  1  0  0  0  0
  8 40  1  0  0  0  0
  8 41  1  0  0  0  0
  8 42  1  0  0  0  0
  9 10  1  0  0  0  0
  9 43  1  0  0  0  0
  9 44  1  0  0  0  0
 10 11  1  0  0  0  0
 10 19  1  0  0  0  0
 11 12  2  0  0  0  0
 11 16  1  0  0  0  0
 12 13  1  0  0  0  0
 12 18  1  0  0  0  0
 13 14  2  0  0  0  0
 13 45  1  0  0  0  0
 14 15  1  0  0  0  0
 14 17  1  0  0  0  0
 15 16  2  0  0  0  0
 15 46  1  0  0  0  0
 16 47  1  0  0  0  0
 18 19  2  0  0  0  0
 18 21  1  0  0  0  0
 19 20  1  0  0  0  0
 20 48  1  0  0  0  0
 21 22  2  3  0  0  0
 22 23  1  0  0  0  0
 23 24  2  0  0  0  0
 23 25  1  0  0  0  0
 25 26  1  0  0  0  0
 25 49  1  0  0  0  0
 26 27  2  0  0  0  0
 26 31  1  0  0  0  0
 27 28  1  0  0  0  0
 27 50  1  0  0  0  0
 28 29  2  0  0  0  0
 28 51  1  0  0  0  0
 29 30  1  0  0  0  0
 29 52  1  0  0  0  0
 30 31  2  0  0  0  0
 30 53  1  0  0  0  0
 31 32  1  0  0  0  0
 32 33  1  0  0  0  0
 33 54  1  0  0  0  0
 33 55  1  0  0  0  0
 33 56  1  0  0  0  0
M  END
