
 OpenBabel10072616343D

 48 50  0  0  1  0  0  0  0  0999 V2000
   -0.2179   -2.6810    2.2187 C   0  0  0  0  0  0  0  0  0  0  0  0
    0.0472   -1.6630    3.2070 O   0  0  0  0  0  0  0  0  0  0  0  0
    0.8905   -0.8526    2.5153 C   0  0  0  0  0  0  0  0  0  0  0  0
    1.0919   -1.2797    1.2248 C   0  0  0  0  0  0  0  0  0  0  0  0
    0.4186   -2.4301    0.9490 O   0  0  0  0  0  0  0  0  0  0  0  0
    1.9050   -0.5937    0.3409 C   0  0  0  0  0  0  0  0  0  0  0  0
    2.5333    0.5848    0.7791 C   0  0  0  0  0  0  0  0  0  0  0  0
    2.3425    0.9822    2.1322 C   0  0  0  0  0  0  0  0  0  0  0  0
    1.5132    0.2707    3.0049 C   0  0  0  0  0  0  0  0  0  0  0  0
    3.4634    1.4240   -0.0951 C   0  0  3  0  0  0  0  0  0  0  0  0
    3.5989    1.0403   -1.5749 C   0  0  0  0  0  0  0  0  0  0  0  0
    2.3711    1.3472   -2.3920 C   0  0  0  0  0  0  0  0  0  0  0  0
    1.5361    0.5171   -2.7177 O   0  0  0  0  0  0  0  0  0  0  0  0
    2.2821    2.6462   -2.7598 O   0  0  0  0  0  0  0  0  0  0  0  0
    3.1605    2.8471    0.0688 N   0  0  0  0  0  0  0  0  0  0  0  0
    4.1039    3.8378   -0.0935 C   0  0  0  0  0  0  0  0  0  0  0  0
    5.2034    3.5774   -0.5752 O   0  0  0  0  0  0  0  0  0  0  0  0
    3.6831    5.1863    0.2450 C   0  0  0  0  0  0  0  0  0  0  0  0
    4.3786    6.3524   -0.0061 C   0  0  0  0  0  0  0  0  0  0  0  0
    3.6519    7.5107    0.3899 C   0  0  0  0  0  0  0  0  0  0  0  0
    2.4155    7.2065    0.9309 C   0  0  0  0  0  0  0  0  0  0  0  0
    2.1978    5.5042    1.0334 S   0  0  0  0  0  0  0  0  0  0  0  0
    1.3694    8.0642    1.3627 C   0  0  0  0  0  0  0  0  0  0  0  0
    1.0025    9.1147    0.6128 C   0  0  0  0  0  0  0  0  0  0  0  0
   -0.1489    9.9485    1.0265 C   0  0  0  0  0  0  0  0  0  0  0  0
   -0.6123    9.9117    2.1616 O   0  0  0  0  0  0  0  0  0  0  0  0
   -0.6193   10.6616   -0.0429 N   0  0  0  0  0  0  0  0  0  0  0  0
   -1.5713   11.5128    0.1402 C   0  0  0  0  0  0  0  0  0  0  0  0
   -2.1436   11.9066    1.2979 N   0  0  0  0  0  0  0  0  0  0  0  0
   -2.0843   12.1772   -0.9214 N   0  0  0  0  0  0  0  0  0  0  0  0
   -1.3001   -2.7548    2.0624 H   0  0  0  0  0  0  0  0  0  0  0  0
    0.1433   -3.6367    2.6144 H   0  0  0  0  0  0  0  0  0  0  0  0
    2.0271   -0.9886   -0.6622 H   0  0  0  0  0  0  0  0  0  0  0  0
    2.8592    1.8601    2.5189 H   0  0  0  0  0  0  0  0  0  0  0  0
    1.3809    0.5858    4.0340 H   0  0  0  0  0  0  0  0  0  0  0  0
    4.4629    1.2769    0.3400 H   0  0  0  0  0  0  0  0  0  0  0  0
    3.8379   -0.0230   -1.6904 H   0  0  0  0  0  0  0  0  0  0  0  0
    4.4397    1.5713   -2.0374 H   0  0  0  0  0  0  0  0  0  0  0  0
    3.0324    3.1832   -2.4361 H   0  0  0  0  0  0  0  0  0  0  0  0
    2.2480    3.1111    0.4283 H   0  0  0  0  0  0  0  0  0  0  0  0
    5.3556    6.3672   -0.4793 H   0  0  0  0  0  0  0  0  0  0  0  0
    4.0134    8.5242    0.2580 H   0  0  0  0  0  0  0  0  0  0  0  0
    0.8183    7.8114    2.2657 H   0  0  0  0  0  0  0  0  0  0  0  0
    1.4691    9.3584   -0.3332 H   0  0  0  0  0  0  0  0  0  0  0  0
   -1.8904   11.3338    2.1056 H   0  0  0  0  0  0  0  0  0  0  0  0
   -3.1123   12.1868    1.2874 H   0  0  0  0  0  0  0  0  0  0  0  0
   -1.7379   11.8111   -1.8024 H   0  0  0  0  0  0  0  0  0  0  0  0
   -3.0905   12.2651   -0.9284 H   0  0  0  0  0  0  0  0  0  0  0  0
  1  2  1  0  0  0  0
  1  5  1  0  0  0  0
  1 31  1  0  0  0  0
  1 32  1  0  0  0  0
  2  3  1  0  0  0  0
  3  4  2  0  0  0  0
  3  9  1  0  0  0  0
  4  5  1  0  0  0  0
  4  6  1  0  0  0  0
  6  7  2  0  0  0  0
  6 33  1  0  0  0  0
  7  8  1  0  0  0  0
  7 10  1  0  0  0  0
  8  9  2  0  0  0  0
  8 34  1  0  0  0  0
  9 35  1  0  0  0  0
 10 11  1  0  0  0  0
 10 15  1  0  0  0  0
 10 36  1  0  0  0  0
 11 12  1  0  0  0  0
 11 37  1  0  0  0  0
 11 38  1  0  0  0  0
 12 13  2  0  0  0  0
 12 14  1  0  0  0  0
 14 39  1  0  0  0  0
 15 16  1  0  0  0  0
 15 40  1  0  0  0  0
 16 17  2  0  0  0  0
 16 18  1  0  0  0  0
 18 19  2  0  0  0  0
 18 22  1  0  0  0  0
 19 20  1  0  0  0  0
 19 41  1  0  0  0  0
 20 21  2  0  0  0  0
 20 42  1  0  0  0  0
 21 22  1  0  0  0  0
 21 23  1  0  0  0  0
 23 24  2  0  0  0  0
 23 43  1  0  0  0  0
 24 25  1  0  0  0  0
 24 44  1  0  0  0  0
 25 26  2  0  0  0  0
 25 27  1  0  0  0  0
 27 28  2  0  0  0  0
 28 29  1  0  0  0  0
 28 30  1  0  0  0  0
 29 45  1  0  0  0  0
 29 46  1  0  0  0  0
 30 47  1  0  0  0  0
 30 48  1  0  0  0  0
M  END
