
 OpenBabel10072616333D

 39 41  0  0  0  0  0  0  0  0999 V2000
   -0.7098    0.7272    2.1285 C   0  0  0  0  0  0  0  0  0  0  0  0
    0.1390    1.4918    1.1100 C   0  0  0  0  0  0  0  0  0  0  0  0
    1.2159    0.5826    0.6480 N   0  0  0  0  0  0  0  0  0  0  0  0
    1.0211   -1.0029    1.2799 S   0  0  0  0  0  0  0  0  0  0  0  0
    1.1241   -1.9579    0.2009 O   0  0  0  0  0  0  0  0  0  0  0  0
    1.7757   -1.1258    2.5084 O   0  0  0  0  0  0  0  0  0  0  0  0
   -0.6838   -0.7340    1.7115 C   0  0  0  0  0  0  0  0  0  0  0  0
    2.5627    1.0537    0.5702 C   0  0  0  0  0  0  0  0  0  0  0  0
    3.2860    0.7714   -0.5898 C   0  0  0  0  0  0  0  0  0  0  0  0
    4.6294    1.1389   -0.6857 C   0  0  0  0  0  0  0  0  0  0  0  0
    5.2573    1.7576    0.3949 C   0  0  0  0  0  0  0  0  0  0  0  0
    4.5432    2.0315    1.5604 C   0  0  0  0  0  0  0  0  0  0  0  0
    3.1972    1.6662    1.6536 C   0  0  0  0  0  0  0  0  0  0  0  0
    6.6232    2.1319    0.2839 N   0  0  0  0  0  0  0  0  0  0  0  0
    6.9864    3.7353   -0.1039 S   0  0  0  0  0  0  0  0  0  0  0  0
    8.3520    3.7317   -0.5838 O   0  0  0  0  0  0  0  0  0  0  0  0
    5.9143    4.2999   -0.8942 O   0  0  0  0  0  0  0  0  0  0  0  0
    7.0023    4.5257    1.4878 C   0  0  0  0  0  0  0  0  0  0  0  0
    8.0237    4.2146    2.3927 C   0  0  0  0  0  0  0  0  0  0  0  0
    8.0582    4.8493    3.6358 C   0  0  0  0  0  0  0  0  0  0  0  0
    7.0794    5.7890    3.9618 C   0  0  0  0  0  0  0  0  0  0  0  0
    6.0655    6.1034    3.0550 C   0  0  0  0  0  0  0  0  0  0  0  0
    6.0252    5.4731    1.8092 C   0  0  0  0  0  0  0  0  0  0  0  0
    7.1268    6.5734    5.4922 Cl  0  0  0  0  0  0  0  0  0  0  0  0
   -1.7289    1.1200    2.1853 H   0  0  0  0  0  0  0  0  0  0  0  0
   -0.2594    0.8321    3.1236 H   0  0  0  0  0  0  0  0  0  0  0  0
    0.5135    2.4216    1.5474 H   0  0  0  0  0  0  0  0  0  0  0  0
   -0.4721    1.7496    0.2376 H   0  0  0  0  0  0  0  0  0  0  0  0
   -0.9728   -1.4110    2.5176 H   0  0  0  0  0  0  0  0  0  0  0  0
   -1.2956   -0.9150    0.8233 H   0  0  0  0  0  0  0  0  0  0  0  0
    2.8058    0.2625   -1.4224 H   0  0  0  0  0  0  0  0  0  0  0  0
    5.1729    0.9316   -1.6028 H   0  0  0  0  0  0  0  0  0  0  0  0
    5.0313    2.4880    2.4161 H   0  0  0  0  0  0  0  0  0  0  0  0
    2.6647    1.8340    2.5851 H   0  0  0  0  0  0  0  0  0  0  0  0
    7.2405    1.4930   -0.2172 H   0  0  0  0  0  0  0  0  0  0  0  0
    8.7914    3.4884    2.1341 H   0  0  0  0  0  0  0  0  0  0  0  0
    8.8515    4.6143    4.3412 H   0  0  0  0  0  0  0  0  0  0  0  0
    5.3106    6.8430    3.3096 H   0  0  0  0  0  0  0  0  0  0  0  0
    5.2393    5.7263    1.1003 H   0  0  0  0  0  0  0  0  0  0  0  0
  1  2  1  0  0  0  0
  1  7  1  0  0  0  0
  1 25  1  0  0  0  0
  1 26  1  0  0  0  0
  2  3  1  0  0  0  0
  2 27  1  0  0  0  0
  2 28  1  0  0  0  0
  3  4  1  0  0  0  0
  3  8  1  0  0  0  0
  4  5  2  0  0  0  0
  4  6  2  0  0  0  0
  4  7  1  0  0  0  0
  7 29  1  0  0  0  0
  7 30  1  0  0  0  0
  8  9  2  0  0  0  0
  8 13  1  0  0  0  0
  9 10  1  0  0  0  0
  9 31  1  0  0  0  0
 10 11  2  0  0  0  0
 10 32  1  0  0  0  0
 11 12  1  0  0  0  0
 11 14  1  0  0  0  0
 12 13  2  0  0  0  0
 12 33  1  0  0  0  0
 13 34  1  0  0  0  0
 14 15  1  0  0  0  0
 14 35  1  0  0  0  0
 15 16  2  0  0  0  0
 15 17  2  0  0  0  0
 15 18  1  0  0  0  0
 18 19  2  0  0  0  0
 18 23  1  0  0  0  0
 19 20  1  0  0  0  0
 19 36  1  0  0  0  0
 20 21  2  0  0  0  0
 20 37  1  0  0  0  0
 21 22  1  0  0  0  0
 21 24  1  0  0  0  0
 22 23  2  0  0  0  0
 22 38  1  0  0  0  0
 23 39  1  0  0  0  0
M  END
