
 OpenBabel10072620203D

 54 56  0  0  1  0  0  0  0  0999 V2000
    0.2986    1.7042   -4.6868 C   0  0  0  0  0  0  0  0  0  0  0  0
    1.5148    1.3757   -3.8449 C   0  0  0  0  0  0  0  0  0  0  0  0
    2.9630    1.1315   -4.8591 S   0  0  0  0  0  0  0  0  0  0  0  0
    2.7817   -0.0840   -5.6239 O   0  0  0  0  0  0  0  0  0  0  0  0
    3.3057    2.3887   -5.4827 O   0  0  0  0  0  0  0  0  0  0  0  0
    4.0910    0.7328   -3.6519 N   0  0  0  0  0  0  0  0  0  0  0  0
    5.2413    1.5708   -3.5518 C   0  0  0  0  0  0  0  0  0  0  0  0
    5.1400    2.8367   -2.9785 C   0  0  0  0  0  0  0  0  0  0  0  0
    6.2692    3.6512   -2.8942 C   0  0  0  0  0  0  0  0  0  0  0  0
    7.4993    3.1977   -3.3809 C   0  0  0  0  0  0  0  0  0  0  0  0
    7.5966    1.9344   -3.9743 C   0  0  0  0  0  0  0  0  0  0  0  0
    6.4574    1.1245   -4.0673 C   0  0  0  0  0  0  0  0  0  0  0  0
    8.8814    1.4088   -4.4930 C   0  0  0  0  0  0  0  0  0  0  0  0
    8.9608    0.3095   -5.1742 N   0  0  0  0  0  0  0  0  0  0  0  0
   10.3626    0.0822   -5.4333 N   0  0  0  0  0  0  0  0  0  0  0  0
   11.1897    1.2263   -5.0085 C   0  0  3  0  0  0  0  0  0  0  0  0
   10.1963    2.0858   -4.2081 C   0  0  0  0  0  0  0  0  0  0  0  0
   11.8969    2.0420   -6.0689 C   0  0  0  0  0  0  0  0  0  0  0  0
   11.2246    2.5631   -7.1831 C   0  0  0  0  0  0  0  0  0  0  0  0
   11.9019    3.3428   -8.1274 C   0  0  0  0  0  0  0  0  0  0  0  0
   13.2586    3.6430   -7.9652 C   0  0  0  0  0  0  0  0  0  0  0  0
   13.9391    3.1100   -6.8668 C   0  0  0  0  0  0  0  0  0  0  0  0
   13.2652    2.3246   -5.9270 C   0  0  0  0  0  0  0  0  0  0  0  0
   13.9874    4.4652   -8.9880 C   0  0  0  0  0  0  0  0  0  0  0  0
   10.8173   -1.0585   -6.6010 S   0  0  0  0  0  0  0  0  0  0  0  0
    9.9213   -2.1952   -6.4978 O   0  0  0  0  0  0  0  0  0  0  0  0
   11.0199   -0.4024   -7.8752 O   0  0  0  0  0  0  0  0  0  0  0  0
   12.4128   -1.5884   -5.9890 C   0  0  0  0  0  0  0  0  0  0  0  0
   12.9838   -2.7064   -6.8408 C   0  0  0  0  0  0  0  0  0  0  0  0
   -0.5823    1.8181   -4.0486 H   0  0  0  0  0  0  0  0  0  0  0  0
    0.0950    0.9150   -5.4178 H   0  0  0  0  0  0  0  0  0  0  0  0
    0.4427    2.6391   -5.2379 H   0  0  0  0  0  0  0  0  0  0  0  0
    1.3527    0.4554   -3.2755 H   0  0  0  0  0  0  0  0  0  0  0  0
    1.7339    2.1971   -3.1559 H   0  0  0  0  0  0  0  0  0  0  0  0
    4.3100   -0.2630   -3.7447 H   0  0  0  0  0  0  0  0  0  0  0  0
    4.1856    3.1971   -2.6053 H   0  0  0  0  0  0  0  0  0  0  0  0
    6.1893    4.6422   -2.4525 H   0  0  0  0  0  0  0  0  0  0  0  0
    8.3588    3.8558   -3.2988 H   0  0  0  0  0  0  0  0  0  0  0  0
    6.5197    0.1459   -4.5384 H   0  0  0  0  0  0  0  0  0  0  0  0
   11.9360    0.8400   -4.3020 H   0  0  0  0  0  0  0  0  0  0  0  0
   10.1820    3.1364   -4.5079 H   0  0  0  0  0  0  0  0  0  0  0  0
   10.3965    2.0179   -3.1333 H   0  0  0  0  0  0  0  0  0  0  0  0
   10.1702    2.3418   -7.3458 H   0  0  0  0  0  0  0  0  0  0  0  0
   11.3588    3.7125   -8.9951 H   0  0  0  0  0  0  0  0  0  0  0  0
   15.0005    3.3064   -6.7313 H   0  0  0  0  0  0  0  0  0  0  0  0
   13.8248    1.9383   -5.0777 H   0  0  0  0  0  0  0  0  0  0  0  0
   13.3196    5.2052   -9.4416 H   0  0  0  0  0  0  0  0  0  0  0  0
   14.3915    3.8226   -9.7767 H   0  0  0  0  0  0  0  0  0  0  0  0
   14.8127    5.0181   -8.5262 H   0  0  0  0  0  0  0  0  0  0  0  0
   12.2764   -1.9291   -4.9584 H   0  0  0  0  0  0  0  0  0  0  0  0
   13.0903   -0.7323   -6.0065 H   0  0  0  0  0  0  0  0  0  0  0  0
   12.3182   -3.5757   -6.8488 H   0  0  0  0  0  0  0  0  0  0  0  0
   13.9564   -3.0224   -6.4512 H   0  0  0  0  0  0  0  0  0  0  0  0
   13.1197   -2.3792   -7.8769 H   0  0  0  0  0  0  0  0  0  0  0  0
  1  2  1  0  0  0  0
  1 30  1  0  0  0  0
  1 31  1  0  0  0  0
  1 32  1  0  0  0  0
  2  3  1  0  0  0  0
  2 33  1  0  0  0  0
  2 34  1  0  0  0  0
  3  4  2  0  0  0  0
  3  5  2  0  0  0  0
  3  6  1  0  0  0  0
  6  7  1  0  0  0  0
  6 35  1  0  0  0  0
  7  8  2  0  0  0  0
  7 12  1  0  0  0  0
  8  9  1  0  0  0  0
  8 36  1  0  0  0  0
  9 10  2  0  0  0  0
  9 37  1  0  0  0  0
 10 11  1  0  0  0  0
 10 38  1  0  0  0  0
 11 12  2  0  0  0  0
 11 13  1  0  0  0  0
 12 39  1  0  0  0  0
 13 14  2  0  0  0  0
 13 17  1  0  0  0  0
 14 15  1  0  0  0  0
 15 16  1  0  0  0  0
 15 25  1  0  0  0  0
 16 17  1  0  0  0  0
 16 18  1  0  0  0  0
 16 40  1  0  0  0  0
 17 41  1  0  0  0  0
 17 42  1  0  0  0  0
 18 19  2  0  0  0  0
 18 23  1  0  0  0  0
 19 20  1  0  0  0  0
 19 43  1  0  0  0  0
 20 21  2  0  0  0  0
 20 44  1  0  0  0  0
 21 22  1  0  0  0  0
 21 24  1  0  0  0  0
 22 23  2  0  0  0  0
 22 45  1  0  0  0  0
 23 46  1  0  0  0  0
 24 47  1  0  0  0  0
 24 48  1  0  0  0  0
 24 49  1  0  0  0  0
 25 26  2  0  0  0  0
 25 27  2  0  0  0  0
 25 28  1  0  0  0  0
 28 29  1  0  0  0  0
 28 50  1  0  0  0  0
 28 51  1  0  0  0  0
 29 52  1  0  0  0  0
 29 53  1  0  0  0  0
 29 54  1  0  0  0  0
M  END
