
 OpenBabel10072619473D

 18 18  0  0  1  0  0  0  0  0999 V2000
    1.0125    0.0951    0.0493 C   0  0  0  0  0  0  0  0  0  0  0  0
    2.5127   -0.1316    0.0373 C   0  0  3  0  0  0  0  0  0  0  0  0
    2.9409   -1.3531    0.8235 C   0  0  0  0  0  0  0  0  0  0  0  0
    4.1355   -0.9099    1.4713 N   0  0  0  0  0  0  0  0  0  0  0  0
    4.2132    0.4738    1.4143 C   0  0  0  0  0  0  0  0  0  0  0  0
    5.0538    1.1863    1.9415 O   0  0  0  0  0  0  0  0  0  0  0  0
    3.1715    0.9694    0.6755 O   0  0  0  0  0  0  0  0  0  0  0  0
    5.0157   -1.6980    2.1702 C   0  0  0  0  0  0  0  0  0  0  0  0
    4.9225   -3.0243    2.3059 C   0  0  0  0  0  0  0  0  0  0  0  0
    0.4818   -0.7421   -0.4136 H   0  0  0  0  0  0  0  0  0  0  0  0
    0.7627    1.0127   -0.4940 H   0  0  0  0  0  0  0  0  0  0  0  0
    0.6412    0.2272    1.0715 H   0  0  0  0  0  0  0  0  0  0  0  0
    2.8753   -0.1803   -0.9963 H   0  0  0  0  0  0  0  0  0  0  0  0
    3.1251   -2.2091    0.1666 H   0  0  0  0  0  0  0  0  0  0  0  0
    2.2120   -1.6323    1.5929 H   0  0  0  0  0  0  0  0  0  0  0  0
    5.8429   -1.1649    2.6399 H   0  0  0  0  0  0  0  0  0  0  0  0
    4.1245   -3.6110    1.8675 H   0  0  0  0  0  0  0  0  0  0  0  0
    5.6694   -3.5629    2.8818 H   0  0  0  0  0  0  0  0  0  0  0  0
  1  2  1  0  0  0  0
  1 10  1  0  0  0  0
  1 11  1  0  0  0  0
  1 12  1  0  0  0  0
  2  3  1  0  0  0  0
  2  7  1  0  0  0  0
  2 13  1  0  0  0  0
  3  4  1  0  0  0  0
  3 14  1  0  0  0  0
  3 15  1  0  0  0  0
  4  5  1  0  0  0  0
  4  8  1  0  0  0  0
  5  6  2  0  0  0  0
  5  7  1  0  0  0  0
  8  9  2  0  0  0  0
  8 16  1  0  0  0  0
  9 17  1  0  0  0  0
  9 18  1  0  0  0  0
M  END
