
 OpenBabel10072619443D

 31 33  0  0  0  0  0  0  0  0999 V2000
    1.0507   -0.1333    1.1150 C   0  0  0  0  0  0  0  0  0  0  0  0
    0.6827   -1.0636    0.1410 C   0  0  0  0  0  0  0  0  0  0  0  0
   -0.3074   -0.7495   -0.8026 C   0  0  0  0  0  0  0  0  0  0  0  0
   -0.9191    0.5155   -0.7483 C   0  0  0  0  0  0  0  0  0  0  0  0
   -0.5477    1.4457    0.2234 C   0  0  0  0  0  0  0  0  0  0  0  0
    0.4383    1.1215    1.1556 C   0  0  0  0  0  0  0  0  0  0  0  0
   -1.1324    2.7417    0.2642 N   0  0  0  0  0  0  0  0  0  0  0  0
   -2.7834    2.9268    0.5467 S   0  0  0  0  0  0  0  0  0  0  0  0
   -3.0365    4.3450    0.6658 O   0  0  0  0  0  0  0  0  0  0  0  0
   -3.5220    2.1219   -0.4048 O   0  0  0  0  0  0  0  0  0  0  0  0
   -3.0379    2.2312    2.1317 C   0  0  0  0  0  0  0  0  0  0  0  0
   -4.0140    1.2375    2.3652 C   0  0  0  0  0  0  0  0  0  0  0  0
   -4.2830    0.7175    3.6594 C   0  0  0  0  0  0  0  0  0  0  0  0
   -3.6096    1.1548    4.8163 C   0  0  0  0  0  0  0  0  0  0  0  0
   -2.6367    2.1476    4.5941 C   0  0  0  0  0  0  0  0  0  0  0  0
   -1.8427    2.7584    5.4800 N   0  0  0  0  0  0  0  0  0  0  0  0
   -1.0835    3.6544    4.7513 O   0  0  0  0  0  0  0  0  0  0  0  0
   -1.3634    3.5843    3.3970 N   0  0  0  0  0  0  0  0  0  0  0  0
   -2.3448    2.6802    3.2671 C   0  0  0  0  0  0  0  0  0  0  0  0
   -0.6975   -1.7243   -1.8887 C   0  0  0  0  0  0  0  0  0  0  0  0
   -0.1839   -2.9735   -1.7047 F   0  0  0  0  0  0  0  0  0  0  0  0
   -2.0454   -1.8918   -1.9803 F   0  0  0  0  0  0  0  0  0  0  0  0
   -0.2830   -1.3249   -3.1231 F   0  0  0  0  0  0  0  0  0  0  0  0
    1.8194   -0.3874    1.8420 H   0  0  0  0  0  0  0  0  0  0  0  0
    1.1739   -2.0369    0.1188 H   0  0  0  0  0  0  0  0  0  0  0  0
   -1.6698    0.7702   -1.4969 H   0  0  0  0  0  0  0  0  0  0  0  0
    0.7463    1.8356    1.9152 H   0  0  0  0  0  0  0  0  0  0  0  0
   -0.5917    3.4949    0.6922 H   0  0  0  0  0  0  0  0  0  0  0  0
   -4.6016    0.8590    1.5259 H   0  0  0  0  0  0  0  0  0  0  0  0
   -5.0553   -0.0477    3.7631 H   0  0  0  0  0  0  0  0  0  0  0  0
   -3.8317    0.7712    5.8045 H   0  0  0  0  0  0  0  0  0  0  0  0
  1  2  2  0  0  0  0
  1  6  1  0  0  0  0
  1 24  1  0  0  0  0
  2  3  1  0  0  0  0
  2 25  1  0  0  0  0
  3  4  2  0  0  0  0
  3 20  1  0  0  0  0
  4  5  1  0  0  0  0
  4 26  1  0  0  0  0
  5  6  2  0  0  0  0
  5  7  1  0  0  0  0
  6 27  1  0  0  0  0
  7  8  1  0  0  0  0
  7 28  1  0  0  0  0
  8  9  2  0  0  0  0
  8 10  2  0  0  0  0
  8 11  1  0  0  0  0
 11 12  2  0  0  0  0
 11 19  1  0  0  0  0
 12 13  1  0  0  0  0
 12 29  1  0  0  0  0
 13 14  2  0  0  0  0
 13 30  1  0  0  0  0
 14 15  1  0  0  0  0
 14 31  1  0  0  0  0
 15 16  2  0  0  0  0
 15 19  1  0  0  0  0
 16 17  1  0  0  0  0
 17 18  1  0  0  0  0
 18 19  2  0  0  0  0
 20 21  1  0  0  0  0
 20 22  1  0  0  0  0
 20 23  1  0  0  0  0
M  END
