
 OpenBabel10072620013D

 40 42  0  0  0  0  0  0  0  0999 V2000
    5.0118    4.8845    0.2767 C   0  0  0  0  0  0  0  0  0  0  0  0
    3.9834    3.9897    0.9158 C   0  0  0  0  0  0  0  0  0  0  0  0
    4.1384    2.5858    0.9852 C   0  0  0  0  0  0  0  0  0  0  0  0
    3.1247    1.8283    1.5802 C   0  0  0  0  0  0  0  0  0  0  0  0
    1.9568    2.4299    2.0613 C   0  0  0  0  0  0  0  0  0  0  0  0
    1.8003    3.8072    1.9702 C   0  0  0  0  0  0  0  0  0  0  0  0
    2.8052    4.5871    1.4050 C   0  0  0  0  0  0  0  0  0  0  0  0
    0.0719    4.7020    2.7028 I   0  0  0  0  0  0  0  0  0  0  0  0
    5.3450    2.0110    0.5193 N   0  0  0  0  0  0  0  0  0  0  0  0
    5.6781    0.7326    0.1361 C   0  0  0  0  0  0  0  0  0  0  0  0
    4.6848   -0.5725   -0.1864 S   0  0  0  0  0  0  0  0  0  0  0  0
    7.0325    0.5164   -0.0505 N   0  0  0  0  0  0  0  0  0  0  0  0
    8.1038    1.3787    0.1383 C   0  0  0  0  0  0  0  0  0  0  0  0
    7.9609    2.5619    0.4413 O   0  0  0  0  0  0  0  0  0  0  0  0
    9.3913    0.7562   -0.0777 C   0  0  0  0  0  0  0  0  0  0  0  0
   10.6728    1.2205    0.1391 C   0  0  0  0  0  0  0  0  0  0  0  0
   11.5542    0.1887   -0.2606 C   0  0  0  0  0  0  0  0  0  0  0  0
   10.7630   -0.8485   -0.7095 C   0  0  0  0  0  0  0  0  0  0  0  0
    9.4445   -0.5139   -0.5929 O   0  0  0  0  0  0  0  0  0  0  0  0
   11.0665   -2.1855   -1.2757 C   0  0  0  0  0  0  0  0  0  0  0  0
   11.2138   -3.1683   -0.2126 N   0  0  0  0  0  0  0  0  0  0  0  0
   10.2108   -3.8956    0.3677 C   0  0  0  0  0  0  0  0  0  0  0  0
   10.8212   -4.7085    1.2888 C   0  0  0  0  0  0  0  0  0  0  0  0
   12.1920   -4.4145    1.1846 C   0  0  0  0  0  0  0  0  0  0  0  0
   12.4422   -3.4789    0.2613 N   0  0  0  0  0  0  0  0  0  0  0  0
   10.1039   -5.8302    2.3288 Cl  0  0  0  0  0  0  0  0  0  0  0  0
    5.0693    4.6771   -0.7962 H   0  0  0  0  0  0  0  0  0  0  0  0
    5.9935    4.7424    0.7368 H   0  0  0  0  0  0  0  0  0  0  0  0
    4.7554    5.9419    0.3999 H   0  0  0  0  0  0  0  0  0  0  0  0
    3.2272    0.7606    1.7337 H   0  0  0  0  0  0  0  0  0  0  0  0
    1.1916    1.8072    2.5169 H   0  0  0  0  0  0  0  0  0  0  0  0
    2.6789    5.6662    1.3375 H   0  0  0  0  0  0  0  0  0  0  0  0
    6.1101    2.6730    0.4006 H   0  0  0  0  0  0  0  0  0  0  0  0
    7.2723   -0.4290   -0.3258 H   0  0  0  0  0  0  0  0  0  0  0  0
   10.9293    2.1912    0.5438 H   0  0  0  0  0  0  0  0  0  0  0  0
   12.6355    0.1947   -0.2291 H   0  0  0  0  0  0  0  0  0  0  0  0
   11.9962   -2.1703   -1.8542 H   0  0  0  0  0  0  0  0  0  0  0  0
   10.2614   -2.5293   -1.9343 H   0  0  0  0  0  0  0  0  0  0  0  0
    9.1751   -3.7707    0.0856 H   0  0  0  0  0  0  0  0  0  0  0  0
   13.0177   -4.8432    1.7372 H   0  0  0  0  0  0  0  0  0  0  0  0
  1  2  1  0  0  0  0
  1 27  1  0  0  0  0
  1 28  1  0  0  0  0
  1 29  1  0  0  0  0
  2  3  2  0  0  0  0
  2  7  1  0  0  0  0
  3  4  1  0  0  0  0
  3  9  1  0  0  0  0
  4  5  2  0  0  0  0
  4 30  1  0  0  0  0
  5  6  1  0  0  0  0
  5 31  1  0  0  0  0
  6  7  2  0  0  0  0
  6  8  1  0  0  0  0
  7 32  1  0  0  0  0
  9 10  1  0  0  0  0
  9 33  1  0  0  0  0
 10 11  2  0  0  0  0
 10 12  1  0  0  0  0
 12 13  1  0  0  0  0
 12 34  1  0  0  0  0
 13 14  2  0  0  0  0
 13 15  1  0  0  0  0
 15 16  2  0  0  0  0
 15 19  1  0  0  0  0
 16 17  1  0  0  0  0
 16 35  1  0  0  0  0
 17 18  2  0  0  0  0
 17 36  1  0  0  0  0
 18 19  1  0  0  0  0
 18 20  1  0  0  0  0
 20 21  1  0  0  0  0
 20 37  1  0  0  0  0
 20 38  1  0  0  0  0
 21 22  1  0  0  0  0
 21 25  1  0  0  0  0
 22 23  2  0  0  0  0
 22 39  1  0  0  0  0
 23 24  1  0  0  0  0
 23 26  1  0  0  0  0
 24 25  2  0  0  0  0
 24 40  1  0  0  0  0
M  END
