
 OpenBabel10072616333D

 44 47  0  0  0  0  0  0  0  0999 V2000
    1.4958    0.2113   -1.4785 C   0  0  0  0  0  0  0  0  0  0  0  0
    0.9296   -1.0580   -1.5761 C   0  0  0  0  0  0  0  0  0  0  0  0
   -0.4507   -1.2301   -1.4221 C   0  0  0  0  0  0  0  0  0  0  0  0
   -1.2746   -0.1326   -1.1673 C   0  0  0  0  0  0  0  0  0  0  0  0
   -0.6957    1.1409   -1.0777 C   0  0  0  0  0  0  0  0  0  0  0  0
    0.6823    1.3124   -1.2297 C   0  0  0  0  0  0  0  0  0  0  0  0
   -2.6734   -0.2108   -1.0079 N   0  0  0  0  0  0  0  0  0  0  0  0
   -3.4563   -1.3481   -0.9303 C   0  0  0  0  0  0  0  0  0  0  0  0
   -3.0667   -2.5050   -0.9252 O   0  0  0  0  0  0  0  0  0  0  0  0
   -4.7983   -1.0003   -0.8985 N   0  0  0  0  0  0  0  0  0  0  0  0
   -5.8382   -1.9327   -0.7350 C   0  0  0  0  0  0  0  0  0  0  0  0
   -6.8765   -1.6878   -1.5665 N   0  0  0  0  0  0  0  0  0  0  0  0
   -7.9357   -2.5213   -1.5183 C   0  0  0  0  0  0  0  0  0  0  0  0
   -8.0362   -3.5974   -0.6452 C   0  0  0  0  0  0  0  0  0  0  0  0
   -6.9720   -3.8398    0.2486 C   0  0  0  0  0  0  0  0  0  0  0  0
   -5.8561   -2.9618    0.2140 C   0  0  0  0  0  0  0  0  0  0  0  0
   -4.8504   -3.0485    1.2347 C   0  0  0  0  0  0  0  0  0  0  0  0
   -4.0945   -3.0880    2.1183 N   0  0  0  0  0  0  0  0  0  0  0  0
   -6.9903   -4.9684    1.1972 C   0  0  0  0  0  0  0  0  0  0  0  0
   -6.5066   -6.2284    0.8036 C   0  0  0  0  0  0  0  0  0  0  0  0
   -6.5136   -7.3042    1.6946 C   0  0  0  0  0  0  0  0  0  0  0  0
   -7.0202   -7.1320    2.9804 C   0  0  0  0  0  0  0  0  0  0  0  0
   -7.5018   -5.8903    3.3904 C   0  0  0  0  0  0  0  0  0  0  0  0
   -7.4754   -4.8085    2.5059 C   0  0  0  0  0  0  0  0  0  0  0  0
   -7.0469   -8.4624    4.0714 Cl  0  0  0  0  0  0  0  0  0  0  0  0
   -9.2932   -4.3896   -0.7049 C   0  0  0  0  0  0  0  0  0  0  0  0
   -9.5424   -5.3171    0.0522 O   0  0  0  0  0  0  0  0  0  0  0  0
  -10.2068   -4.0207   -1.6618 N   0  0  0  0  0  0  0  0  0  0  0  0
  -10.1016   -2.9574   -2.5037 C   0  0  0  0  0  0  0  0  0  0  0  0
  -10.9946   -2.6630   -3.2929 O   0  0  0  0  0  0  0  0  0  0  0  0
   -8.9577   -2.2358   -2.4119 N   0  0  0  0  0  0  0  0  0  0  0  0
    2.5685    0.3391   -1.5963 H   0  0  0  0  0  0  0  0  0  0  0  0
    1.5606   -1.9218   -1.7707 H   0  0  0  0  0  0  0  0  0  0  0  0
   -0.8502   -2.2361   -1.5070 H   0  0  0  0  0  0  0  0  0  0  0  0
   -1.3063    2.0182   -0.8834 H   0  0  0  0  0  0  0  0  0  0  0  0
    1.1183    2.3049   -1.1522 H   0  0  0  0  0  0  0  0  0  0  0  0
   -3.1434    0.6553   -0.7880 H   0  0  0  0  0  0  0  0  0  0  0  0
   -5.0420   -0.2770   -1.5614 H   0  0  0  0  0  0  0  0  0  0  0  0
   -6.1234   -6.3830   -0.2031 H   0  0  0  0  0  0  0  0  0  0  0  0
   -6.1291   -8.2708    1.3787 H   0  0  0  0  0  0  0  0  0  0  0  0
   -7.8976   -5.7580    4.3938 H   0  0  0  0  0  0  0  0  0  0  0  0
   -7.8475   -3.8439    2.8439 H   0  0  0  0  0  0  0  0  0  0  0  0
  -11.0674   -4.5500   -1.6975 H   0  0  0  0  0  0  0  0  0  0  0  0
   -8.8453   -1.4442   -3.0305 H   0  0  0  0  0  0  0  0  0  0  0  0
  1  2  2  0  0  0  0
  1  6  1  0  0  0  0
  1 32  1  0  0  0  0
  2  3  1  0  0  0  0
  2 33  1  0  0  0  0
  3  4  2  0  0  0  0
  3 34  1  0  0  0  0
  4  5  1  0  0  0  0
  4  7  1  0  0  0  0
  5  6  2  0  0  0  0
  5 35  1  0  0  0  0
  6 36  1  0  0  0  0
  7  8  1  0  0  0  0
  7 37  1  0  0  0  0
  8  9  2  0  0  0  0
  8 10  1  0  0  0  0
 10 11  1  0  0  0  0
 10 38  1  0  0  0  0
 11 12  2  0  0  0  0
 11 16  1  0  0  0  0
 12 13  1  0  0  0  0
 13 14  2  0  0  0  0
 13 31  1  0  0  0  0
 14 15  1  0  0  0  0
 14 26  1  0  0  0  0
 15 16  2  0  0  0  0
 15 19  1  0  0  0  0
 16 17  1  0  0  0  0
 17 18  3  0  0  0  0
 19 20  2  0  0  0  0
 19 24  1  0  0  0  0
 20 21  1  0  0  0  0
 20 39  1  0  0  0  0
 21 22  2  0  0  0  0
 21 40  1  0  0  0  0
 22 23  1  0  0  0  0
 22 25  1  0  0  0  0
 23 24  2  0  0  0  0
 23 41  1  0  0  0  0
 24 42  1  0  0  0  0
 26 27  2  0  0  0  0
 26 28  1  0  0  0  0
 28 29  1  0  0  0  0
 28 43  1  0  0  0  0
 29 30  2  0  0  0  0
 29 31  1  0  0  0  0
 31 44  1  0  0  0  0
M  END
