
 OpenBabel10072620013D

 35 35  0  0  0  0  0  0  0  0999 V2000
    2.3217    0.5197    0.9677 C   0  0  0  0  0  0  0  0  0  0  0  0
    0.9768    0.1191    0.4227 C   0  0  0  0  0  0  0  0  0  0  0  0
   -0.0343    1.0238    0.0331 C   0  0  0  0  0  0  0  0  0  0  0  0
   -1.3267    0.5206   -0.2674 C   0  0  0  0  0  0  0  0  0  0  0  0
   -1.5503   -0.8676   -0.2946 C   0  0  0  0  0  0  0  0  0  0  0  0
   -0.5257   -1.7562    0.0051 C   0  0  0  0  0  0  0  0  0  0  0  0
    0.7238   -1.2665    0.3666 C   0  0  0  0  0  0  0  0  0  0  0  0
   -2.4892    1.4210   -0.5916 C   0  0  0  0  0  0  0  0  0  0  0  0
    0.1500    2.4323   -0.0308 N   0  0  0  0  0  0  0  0  0  0  0  0
    1.2748    3.0780   -0.5262 C   0  0  0  0  0  0  0  0  0  0  0  0
    2.2585    2.5417   -1.0158 O   0  0  0  0  0  0  0  0  0  0  0  0
    1.1201    4.4610   -0.4314 N   0  0  0  0  0  0  0  0  0  0  0  0
    1.9717    5.4274   -0.9120 C   0  0  0  0  0  0  0  0  0  0  0  0
    1.7626    6.6883   -0.7858 N   0  0  0  0  0  0  0  0  0  0  0  0
    0.5131    7.2519   -0.2507 C   0  0  0  0  0  0  0  0  0  0  0  0
    0.3462    7.1571    1.2607 C   0  0  0  0  0  0  0  0  0  0  0  0
    1.4049    7.6359    1.9400 F   0  0  0  0  0  0  0  0  0  0  0  0
   -0.7510    7.8438    1.6576 F   0  0  0  0  0  0  0  0  0  0  0  0
    0.1548    5.8636    1.6293 F   0  0  0  0  0  0  0  0  0  0  0  0
    3.0937    5.0434   -1.5602 N   0  0  0  0  0  0  0  0  0  0  0  0
    2.2999    1.5120    1.4261 H   0  0  0  0  0  0  0  0  0  0  0  0
    3.0878    0.4811    0.1881 H   0  0  0  0  0  0  0  0  0  0  0  0
    2.6217   -0.1687    1.7676 H   0  0  0  0  0  0  0  0  0  0  0  0
   -2.5282   -1.2697   -0.5547 H   0  0  0  0  0  0  0  0  0  0  0  0
   -0.7051   -2.8277   -0.0100 H   0  0  0  0  0  0  0  0  0  0  0  0
    1.5086   -1.9742    0.6313 H   0  0  0  0  0  0  0  0  0  0  0  0
   -2.2834    2.0019   -1.4948 H   0  0  0  0  0  0  0  0  0  0  0  0
   -2.6861    2.0987    0.2444 H   0  0  0  0  0  0  0  0  0  0  0  0
   -3.4085    0.8536   -0.7658 H   0  0  0  0  0  0  0  0  0  0  0  0
   -0.6933    2.9693   -0.1582 H   0  0  0  0  0  0  0  0  0  0  0  0
    0.4096    4.7586    0.2156 H   0  0  0  0  0  0  0  0  0  0  0  0
   -0.3484    6.7900   -0.7474 H   0  0  0  0  0  0  0  0  0  0  0  0
    0.4881    8.3100   -0.5376 H   0  0  0  0  0  0  0  0  0  0  0  0
    3.3922    4.0747   -1.4502 H   0  0  0  0  0  0  0  0  0  0  0  0
    3.8186    5.7415   -1.6436 H   0  0  0  0  0  0  0  0  0  0  0  0
  1  2  1  0  0  0  0
  1 21  1  0  0  0  0
  1 22  1  0  0  0  0
  1 23  1  0  0  0  0
  2  3  2  0  0  0  0
  2  7  1  0  0  0  0
  3  4  1  0  0  0  0
  3  9  1  0  0  0  0
  4  5  2  0  0  0  0
  4  8  1  0  0  0  0
  5  6  1  0  0  0  0
  5 24  1  0  0  0  0
  6  7  2  0  0  0  0
  6 25  1  0  0  0  0
  7 26  1  0  0  0  0
  8 27  1  0  0  0  0
  8 28  1  0  0  0  0
  8 29  1  0  0  0  0
  9 10  1  0  0  0  0
  9 30  1  0  0  0  0
 10 11  2  0  0  0  0
 10 12  1  0  0  0  0
 12 13  1  0  0  0  0
 12 31  1  0  0  0  0
 13 14  2  3  0  0  0
 13 20  1  0  0  0  0
 14 15  1  0  0  0  0
 15 16  1  0  0  0  0
 15 32  1  0  0  0  0
 15 33  1  0  0  0  0
 16 17  1  0  0  0  0
 16 18  1  0  0  0  0
 16 19  1  0  0  0  0
 20 34  1  0  0  0  0
 20 35  1  0  0  0  0
M  END
