
 OpenBabel10072620223D

 48 50  0  0  0  0  0  0  0  0999 V2000
   -0.1342   -1.0218   -2.0934 C   0  0  0  0  0  0  0  0  0  0  0  0
   -0.6824   -0.3691   -0.8755 C   0  0  0  0  0  0  0  0  0  0  0  0
   -1.4483   -0.8766    0.1642 C   0  0  0  0  0  0  0  0  0  0  0  0
   -1.6839    0.2040    1.0787 C   0  0  0  0  0  0  0  0  0  0  0  0
   -1.0654    1.3360    0.5541 C   0  0  0  0  0  0  0  0  0  0  0  0
   -0.4563    0.9591   -0.6177 N   0  0  0  0  0  0  0  0  0  0  0  0
   -1.1091    2.5847    1.1841 C   0  0  0  0  0  0  0  0  0  0  0  0
   -1.8213    2.6879    2.3858 C   0  0  0  0  0  0  0  0  0  0  0  0
   -2.4505    1.5778    2.9448 C   0  0  0  0  0  0  0  0  0  0  0  0
   -2.3720    0.3327    2.3044 C   0  0  0  0  0  0  0  0  0  0  0  0
   -3.1665    1.5685    4.1130 O   0  0  0  0  0  0  0  0  0  0  0  0
   -3.4350    2.8315    4.7087 C   0  0  0  0  0  0  0  0  0  0  0  0
   -1.9310   -2.2894    0.2942 C   0  0  0  0  0  0  0  0  0  0  0  0
   -3.4528   -2.4008    0.4114 C   0  0  0  0  0  0  0  0  0  0  0  0
   -3.8937   -3.7281   -0.0561 N   0  0  0  0  0  0  0  0  0  0  0  0
   -5.5594   -4.0279   -0.0829 S   0  0  0  0  0  0  0  0  0  0  0  0
   -5.6720   -5.4608   -0.2394 O   0  0  0  0  0  0  0  0  0  0  0  0
   -6.1184   -3.3225    1.0492 O   0  0  0  0  0  0  0  0  0  0  0  0
   -6.1293   -3.2818   -1.5887 C   0  0  0  0  0  0  0  0  0  0  0  0
   -7.5093   -3.1379   -1.8033 C   0  0  0  0  0  0  0  0  0  0  0  0
   -7.9407   -2.5143   -2.9806 C   0  0  0  0  0  0  0  0  0  0  0  0
   -7.0149   -2.0391   -3.9166 C   0  0  0  0  0  0  0  0  0  0  0  0
   -5.6520   -2.2009   -3.6922 C   0  0  0  0  0  0  0  0  0  0  0  0
   -5.2008   -2.8303   -2.5384 C   0  0  0  0  0  0  0  0  0  0  0  0
   -4.5141   -1.6136   -4.8407 Cl  0  0  0  0  0  0  0  0  0  0  0  0
   -8.3499   -3.6249   -0.8428 O   0  0  0  0  0  0  0  0  0  0  0  0
   -9.7517   -3.5326   -1.0619 C   0  0  0  0  0  0  0  0  0  0  0  0
    0.4666   -1.8947   -1.8201 H   0  0  0  0  0  0  0  0  0  0  0  0
    0.5057   -0.3398   -2.6620 H   0  0  0  0  0  0  0  0  0  0  0  0
   -0.9447   -1.3522   -2.7504 H   0  0  0  0  0  0  0  0  0  0  0  0
    0.0822    1.5801   -1.2043 H   0  0  0  0  0  0  0  0  0  0  0  0
   -0.6159    3.4527    0.7588 H   0  0  0  0  0  0  0  0  0  0  0  0
   -1.8564    3.6605    2.8665 H   0  0  0  0  0  0  0  0  0  0  0  0
   -2.8566   -0.5253    2.7601 H   0  0  0  0  0  0  0  0  0  0  0  0
   -4.0847    2.6644    5.5733 H   0  0  0  0  0  0  0  0  0  0  0  0
   -3.9677    3.4910    4.0154 H   0  0  0  0  0  0  0  0  0  0  0  0
   -2.5131    3.2987    5.0697 H   0  0  0  0  0  0  0  0  0  0  0  0
   -1.4638   -2.7551    1.1703 H   0  0  0  0  0  0  0  0  0  0  0  0
   -1.5862   -2.8687   -0.5713 H   0  0  0  0  0  0  0  0  0  0  0  0
   -3.9414   -1.6251   -0.1877 H   0  0  0  0  0  0  0  0  0  0  0  0
   -3.7472   -2.2687    1.4571 H   0  0  0  0  0  0  0  0  0  0  0  0
   -3.3876   -4.5500    0.2758 H   0  0  0  0  0  0  0  0  0  0  0  0
   -8.9945   -2.3785   -3.2019 H   0  0  0  0  0  0  0  0  0  0  0  0
   -7.3681   -1.5519   -4.8224 H   0  0  0  0  0  0  0  0  0  0  0  0
   -4.1335   -2.9577   -2.3882 H   0  0  0  0  0  0  0  0  0  0  0  0
  -10.2564   -3.9501   -0.1855 H   0  0  0  0  0  0  0  0  0  0  0  0
  -10.0520   -4.1242   -1.9327 H   0  0  0  0  0  0  0  0  0  0  0  0
  -10.0716   -2.4906   -1.1612 H   0  0  0  0  0  0  0  0  0  0  0  0
  1  2  1  0  0  0  0
  1 28  1  0  0  0  0
  1 29  1  0  0  0  0
  1 30  1  0  0  0  0
  2  3  2  0  0  0  0
  2  6  1  0  0  0  0
  3  4  1  0  0  0  0
  3 13  1  0  0  0  0
  4  5  2  0  0  0  0
  4 10  1  0  0  0  0
  5  6  1  0  0  0  0
  5  7  1  0  0  0  0
  6 31  1  0  0  0  0
  7  8  2  0  0  0  0
  7 32  1  0  0  0  0
  8  9  1  0  0  0  0
  8 33  1  0  0  0  0
  9 10  2  0  0  0  0
  9 11  1  0  0  0  0
 10 34  1  0  0  0  0
 11 12  1  0  0  0  0
 12 35  1  0  0  0  0
 12 36  1  0  0  0  0
 12 37  1  0  0  0  0
 13 14  1  0  0  0  0
 13 38  1  0  0  0  0
 13 39  1  0  0  0  0
 14 15  1  0  0  0  0
 14 40  1  0  0  0  0
 14 41  1  0  0  0  0
 15 16  1  0  0  0  0
 15 42  1  0  0  0  0
 16 17  2  0  0  0  0
 16 18  2  0  0  0  0
 16 19  1  0  0  0  0
 19 20  2  0  0  0  0
 19 24  1  0  0  0  0
 20 21  1  0  0  0  0
 20 26  1  0  0  0  0
 21 22  2  0  0  0  0
 21 43  1  0  0  0  0
 22 23  1  0  0  0  0
 22 44  1  0  0  0  0
 23 24  2  0  0  0  0
 23 25  1  0  0  0  0
 24 45  1  0  0  0  0
 26 27  1  0  0  0  0
 27 46  1  0  0  0  0
 27 47  1  0  0  0  0
 27 48  1  0  0  0  0
M  END
