
 OpenBabel10072619543D

 82 85  0  0  0  0  0  0  0  0999 V2000
    3.6132    1.7891    7.4941 C   0  0  0  0  0  0  0  0  0  0  0  0
    3.8448    0.3281    7.1475 C   0  0  0  0  0  0  0  0  0  0  0  0
    4.8655    0.1704    6.0207 C   0  0  0  0  0  0  0  0  0  0  0  0
    5.0562   -1.3014    5.6580 C   0  0  0  0  0  0  0  0  0  0  0  0
    6.0146   -1.4813    4.4788 C   0  0  0  0  0  0  0  0  0  0  0  0
    6.1371   -2.9631    4.1062 C   0  0  0  0  0  0  0  0  0  0  0  0
    7.0520   -3.2086    2.9001 C   0  0  0  0  0  0  0  0  0  0  0  0
    8.4533   -2.8272    3.1458 N   0  0  0  0  0  0  0  0  0  0  0  0
    9.2441   -2.4821    1.9540 C   0  0  0  0  0  0  0  0  0  0  0  0
    8.8252   -1.1577    1.3128 C   0  0  0  0  0  0  0  0  0  0  0  0
    9.6632   -0.7796    0.0861 C   0  0  0  0  0  0  0  0  0  0  0  0
    9.5896   -1.8302   -1.0283 C   0  0  0  0  0  0  0  0  0  0  0  0
   10.2016   -1.3699   -2.3497 C   0  0  0  0  0  0  0  0  0  0  0  0
    9.1216   -0.1784   -3.1995 S   0  0  0  0  0  0  0  0  0  0  0  0
    9.9282   -0.0671   -4.7157 C   0  0  0  0  0  0  0  0  0  0  0  0
   10.9818   -0.7303   -5.1160 N   0  0  0  0  0  0  0  0  0  0  0  0
   11.2220   -0.2742   -6.3960 C   0  0  0  0  0  0  0  0  0  0  0  0
   10.2705    0.6640   -6.7792 C   0  0  0  0  0  0  0  0  0  0  0  0
    9.4625    0.7812   -5.6694 N   0  0  0  0  0  0  0  0  0  0  0  0
   10.0131    1.4035   -8.0061 C   0  0  0  0  0  0  0  0  0  0  0  0
    9.8712    0.7392   -9.2309 C   0  0  0  0  0  0  0  0  0  0  0  0
    9.6048    1.4605  -10.3969 C   0  0  0  0  0  0  0  0  0  0  0  0
    9.4890    2.8487  -10.3492 C   0  0  0  0  0  0  0  0  0  0  0  0
    9.6314    3.5179   -9.1351 C   0  0  0  0  0  0  0  0  0  0  0  0
    9.8884    2.7979   -7.9682 C   0  0  0  0  0  0  0  0  0  0  0  0
   12.3405   -0.7552   -7.1860 C   0  0  0  0  0  0  0  0  0  0  0  0
   12.6463   -2.1227   -7.1818 C   0  0  0  0  0  0  0  0  0  0  0  0
   13.7123   -2.6115   -7.9394 C   0  0  0  0  0  0  0  0  0  0  0  0
   14.4911   -1.7359   -8.6929 C   0  0  0  0  0  0  0  0  0  0  0  0
   14.2112   -0.3698   -8.6836 C   0  0  0  0  0  0  0  0  0  0  0  0
   13.1405    0.1187   -7.9322 C   0  0  0  0  0  0  0  0  0  0  0  0
    9.2004   -3.4943    4.1560 C   0  0  0  0  0  0  0  0  0  0  0  0
    9.1216   -5.1399    4.4500 S   0  0  0  0  0  0  0  0  0  0  0  0
    9.9380   -2.5439    4.8502 N   0  0  0  0  0  0  0  0  0  0  0  0
   10.9216   -2.6502    5.8547 C   0  0  0  0  0  0  0  0  0  0  0  0
   11.0881   -1.5302    6.6886 C   0  0  0  0  0  0  0  0  0  0  0  0
   12.0212   -1.5149    7.7195 C   0  0  0  0  0  0  0  0  0  0  0  0
   12.8264   -2.6261    7.8995 C   0  0  0  0  0  0  0  0  0  0  0  0
   12.7192   -3.7350    7.0641 C   0  0  0  0  0  0  0  0  0  0  0  0
   11.7628   -3.7479    6.0390 C   0  0  0  0  0  0  0  0  0  0  0  0
   13.7334   -2.6314    8.8869 F   0  0  0  0  0  0  0  0  0  0  0  0
   10.3079   -0.4523    6.5093 F   0  0  0  0  0  0  0  0  0  0  0  0
    2.8635    1.8771    8.2865 H   0  0  0  0  0  0  0  0  0  0  0  0
    3.2532    2.3482    6.6250 H   0  0  0  0  0  0  0  0  0  0  0  0
    4.5364    2.2588    7.8464 H   0  0  0  0  0  0  0  0  0  0  0  0
    2.8915   -0.1245    6.8512 H   0  0  0  0  0  0  0  0  0  0  0  0
    4.1907   -0.2027    8.0415 H   0  0  0  0  0  0  0  0  0  0  0  0
    5.8243    0.6055    6.3256 H   0  0  0  0  0  0  0  0  0  0  0  0
    4.5254    0.7257    5.1392 H   0  0  0  0  0  0  0  0  0  0  0  0
    4.0841   -1.7409    5.4061 H   0  0  0  0  0  0  0  0  0  0  0  0
    5.4382   -1.8459    6.5298 H   0  0  0  0  0  0  0  0  0  0  0  0
    6.9963   -1.0714    4.7410 H   0  0  0  0  0  0  0  0  0  0  0  0
    5.6465   -0.9139    3.6157 H   0  0  0  0  0  0  0  0  0  0  0  0
    5.1408   -3.3474    3.8569 H   0  0  0  0  0  0  0  0  0  0  0  0
    6.4829   -3.5279    4.9783 H   0  0  0  0  0  0  0  0  0  0  0  0
    6.6649   -2.6239    2.0608 H   0  0  0  0  0  0  0  0  0  0  0  0
    7.0141   -4.2605    2.5984 H   0  0  0  0  0  0  0  0  0  0  0  0
    9.1372   -3.3171    1.2520 H   0  0  0  0  0  0  0  0  0  0  0  0
   10.3089   -2.4317    2.2203 H   0  0  0  0  0  0  0  0  0  0  0  0
    8.9047   -0.3569    2.0580 H   0  0  0  0  0  0  0  0  0  0  0  0
    7.7732   -1.1882    1.0090 H   0  0  0  0  0  0  0  0  0  0  0  0
   10.7096   -0.6320    0.3801 H   0  0  0  0  0  0  0  0  0  0  0  0
    9.3005    0.1879   -0.2781 H   0  0  0  0  0  0  0  0  0  0  0  0
    8.5530   -2.1541   -1.1840 H   0  0  0  0  0  0  0  0  0  0  0  0
   10.1446   -2.7185   -0.7047 H   0  0  0  0  0  0  0  0  0  0  0  0
   10.3343   -2.2443   -2.9954 H   0  0  0  0  0  0  0  0  0  0  0  0
   11.1847   -0.9183   -2.1829 H   0  0  0  0  0  0  0  0  0  0  0  0
    8.6465    1.3687   -5.5804 H   0  0  0  0  0  0  0  0  0  0  0  0
    9.9612   -0.3441   -9.2861 H   0  0  0  0  0  0  0  0  0  0  0  0
    9.4922    0.9377  -11.3438 H   0  0  0  0  0  0  0  0  0  0  0  0
    9.2908    3.4101  -11.2586 H   0  0  0  0  0  0  0  0  0  0  0  0
    9.5493    4.6007   -9.0969 H   0  0  0  0  0  0  0  0  0  0  0  0
   10.0144    3.3366   -7.0321 H   0  0  0  0  0  0  0  0  0  0  0  0
   12.0466   -2.8101   -6.5897 H   0  0  0  0  0  0  0  0  0  0  0  0
   13.9342   -3.6756   -7.9368 H   0  0  0  0  0  0  0  0  0  0  0  0
   15.3211   -2.1158   -9.2824 H   0  0  0  0  0  0  0  0  0  0  0  0
   14.8278    0.3169   -9.2567 H   0  0  0  0  0  0  0  0  0  0  0  0
   12.9455    1.1887   -7.9270 H   0  0  0  0  0  0  0  0  0  0  0  0
    9.5277   -1.6189    4.7627 H   0  0  0  0  0  0  0  0  0  0  0  0
   12.1105   -0.6519    8.3697 H   0  0  0  0  0  0  0  0  0  0  0  0
   13.3763   -4.5869    7.2148 H   0  0  0  0  0  0  0  0  0  0  0  0
   11.7297   -4.6127    5.3849 H   0  0  0  0  0  0  0  0  0  0  0  0
  1  2  1  0  0  0  0
  1 43  1  0  0  0  0
  1 44  1  0  0  0  0
  1 45  1  0  0  0  0
  2  3  1  0  0  0  0
  2 46  1  0  0  0  0
  2 47  1  0  0  0  0
  3  4  1  0  0  0  0
  3 48  1  0  0  0  0
  3 49  1  0  0  0  0
  4  5  1  0  0  0  0
  4 50  1  0  0  0  0
  4 51  1  0  0  0  0
  5  6  1  0  0  0  0
  5 52  1  0  0  0  0
  5 53  1  0  0  0  0
  6  7  1  0  0  0  0
  6 54  1  0  0  0  0
  6 55  1  0  0  0  0
  7  8  1  0  0  0  0
  7 56  1  0  0  0  0
  7 57  1  0  0  0  0
  8  9  1  0  0  0  0
  8 32  1  0  0  0  0
  9 10  1  0  0  0  0
  9 58  1  0  0  0  0
  9 59  1  0  0  0  0
 10 11  1  0  0  0  0
 10 60  1  0  0  0  0
 10 61  1  0  0  0  0
 11 12  1  0  0  0  0
 11 62  1  0  0  0  0
 11 63  1  0  0  0  0
 12 13  1  0  0  0  0
 12 64  1  0  0  0  0
 12 65  1  0  0  0  0
 13 14  1  0  0  0  0
 13 66  1  0  0  0  0
 13 67  1  0  0  0  0
 14 15  1  0  0  0  0
 15 16  2  0  0  0  0
 15 19  1  0  0  0  0
 16 17  1  0  0  0  0
 17 18  2  0  0  0  0
 17 26  1  0  0  0  0
 18 19  1  0  0  0  0
 18 20  1  0  0  0  0
 19 68  1  0  0  0  0
 20 21  2  0  0  0  0
 20 25  1  0  0  0  0
 21 22  1  0  0  0  0
 21 69  1  0  0  0  0
 22 23  2  0  0  0  0
 22 70  1  0  0  0  0
 23 24  1  0  0  0  0
 23 71  1  0  0  0  0
 24 25  2  0  0  0  0
 24 72  1  0  0  0  0
 25 73  1  0  0  0  0
 26 27  2  0  0  0  0
 26 31  1  0  0  0  0
 27 28  1  0  0  0  0
 27 74  1  0  0  0  0
 28 29  2  0  0  0  0
 28 75  1  0  0  0  0
 29 30  1  0  0  0  0
 29 76  1  0  0  0  0
 30 31  2  0  0  0  0
 30 77  1  0  0  0  0
 31 78  1  0  0  0  0
 32 33  2  0  0  0  0
 32 34  1  0  0  0  0
 34 35  1  0  0  0  0
 34 79  1  0  0  0  0
 35 36  2  0  0  0  0
 35 40  1  0  0  0  0
 36 37  1  0  0  0  0
 36 42  1  0  0  0  0
 37 38  2  0  0  0  0
 37 80  1  0  0  0  0
 38 39  1  0  0  0  0
 38 41  1  0  0  0  0
 39 40  2  0  0  0  0
 39 81  1  0  0  0  0
 40 82  1  0  0  0  0
M  END
