
 OpenBabel10072620063D

 61 63  0  0  0  0  0  0  0  0999 V2000
   -3.7881    6.2795    1.0511 C   0  0  0  0  0  0  0  0  0  0  0  0
   -4.0810    4.8562    0.6641 C   0  0  0  0  0  0  0  0  0  0  0  0
   -4.5831    4.5238   -0.6083 C   0  0  0  0  0  0  0  0  0  0  0  0
   -4.8146    3.1725   -0.9267 C   0  0  0  0  0  0  0  0  0  0  0  0
   -4.5514    2.1527   -0.0045 C   0  0  0  0  0  0  0  0  0  0  0  0
   -4.0995    2.4980    1.2678 C   0  0  0  0  0  0  0  0  0  0  0  0
   -3.8545    3.8340    1.5951 C   0  0  0  0  0  0  0  0  0  0  0  0
   -4.8472    0.8244   -0.3885 N   0  0  0  0  0  0  0  0  0  0  0  0
   -4.4120   -0.3729    0.1657 C   0  0  0  0  0  0  0  0  0  0  0  0
   -2.8466   -0.5834    0.7596 S   0  0  0  0  0  0  0  0  0  0  0  0
   -5.3902   -1.4081    0.0866 N   0  0  0  0  0  0  0  0  0  0  0  0
   -5.0661   -2.7548    0.6223 C   0  0  0  0  0  0  0  0  0  0  0  0
   -5.9751   -3.9083    0.1806 C   0  0  0  0  0  0  0  0  0  0  0  0
   -5.4548   -5.2459    0.7331 C   0  0  0  0  0  0  0  0  0  0  0  0
   -6.2888   -6.4081    0.3609 N   0  0  0  0  0  0  0  0  0  0  0  0
   -5.6165   -7.6619    0.7225 C   0  0  0  0  0  0  0  0  0  0  0  0
   -5.9108   -8.7575   -0.3060 C   0  0  0  0  0  0  0  0  0  0  0  0
   -7.2833   -9.4127   -0.1993 C   0  0  0  0  0  0  0  0  0  0  0  0
   -8.4647   -8.4483   -0.2195 C   0  0  0  0  0  0  0  0  0  0  0  0
   -8.5012   -7.5543    1.0144 C   0  0  0  0  0  0  0  0  0  0  0  0
   -7.6501   -6.2852    0.9052 C   0  0  0  0  0  0  0  0  0  0  0  0
   -6.8242   -1.0528    0.0191 C   0  0  0  0  0  0  0  0  0  0  0  0
   -7.3468   -0.7531    1.3796 C   0  0  0  0  0  0  0  0  0  0  0  0
   -7.3236    0.3763    2.1725 C   0  0  0  0  0  0  0  0  0  0  0  0
   -7.9586    0.0279    3.3869 C   0  0  0  0  0  0  0  0  0  0  0  0
   -8.3481   -1.2834    3.2513 C   0  0  0  0  0  0  0  0  0  0  0  0
   -7.9891   -1.7649    2.0336 O   0  0  0  0  0  0  0  0  0  0  0  0
   -4.8420    5.5797   -1.6482 C   0  0  0  0  0  0  0  0  0  0  0  0
   -3.0294    6.7027    0.3855 H   0  0  0  0  0  0  0  0  0  0  0  0
   -3.4039    6.3486    2.0747 H   0  0  0  0  0  0  0  0  0  0  0  0
   -4.6999    6.8831    1.0016 H   0  0  0  0  0  0  0  0  0  0  0  0
   -5.1900    2.9206   -1.9158 H   0  0  0  0  0  0  0  0  0  0  0  0
   -3.9466    1.7490    2.0386 H   0  0  0  0  0  0  0  0  0  0  0  0
   -3.4839    4.0678    2.5911 H   0  0  0  0  0  0  0  0  0  0  0  0
   -5.2835    0.7188   -1.2950 H   0  0  0  0  0  0  0  0  0  0  0  0
   -5.0678   -2.6784    1.7171 H   0  0  0  0  0  0  0  0  0  0  0  0
   -4.0466   -3.0079    0.3137 H   0  0  0  0  0  0  0  0  0  0  0  0
   -6.0151   -3.9481   -0.9148 H   0  0  0  0  0  0  0  0  0  0  0  0
   -6.9905   -3.7297    0.5428 H   0  0  0  0  0  0  0  0  0  0  0  0
   -5.3515   -5.1884    1.8254 H   0  0  0  0  0  0  0  0  0  0  0  0
   -4.4450   -5.3875    0.3247 H   0  0  0  0  0  0  0  0  0  0  0  0
   -5.8506   -7.9810    1.7452 H   0  0  0  0  0  0  0  0  0  0  0  0
   -4.5281   -7.5212    0.7014 H   0  0  0  0  0  0  0  0  0  0  0  0
   -5.1539   -9.5445   -0.1940 H   0  0  0  0  0  0  0  0  0  0  0  0
   -5.7768   -8.3567   -1.3197 H   0  0  0  0  0  0  0  0  0  0  0  0
   -7.3215  -10.0167    0.7165 H   0  0  0  0  0  0  0  0  0  0  0  0
   -7.3939  -10.1177   -1.0325 H   0  0  0  0  0  0  0  0  0  0  0  0
   -9.3818   -9.0504   -0.2310 H   0  0  0  0  0  0  0  0  0  0  0  0
   -8.4685   -7.8534   -1.1401 H   0  0  0  0  0  0  0  0  0  0  0  0
   -8.2104   -8.1251    1.9049 H   0  0  0  0  0  0  0  0  0  0  0  0
   -9.5384   -7.2394    1.1864 H   0  0  0  0  0  0  0  0  0  0  0  0
   -7.6193   -5.8402    1.9089 H   0  0  0  0  0  0  0  0  0  0  0  0
   -8.2033   -5.5817    0.2704 H   0  0  0  0  0  0  0  0  0  0  0  0
   -7.3824   -1.8595   -0.4635 H   0  0  0  0  0  0  0  0  0  0  0  0
   -6.9852   -0.1814   -0.6217 H   0  0  0  0  0  0  0  0  0  0  0  0
   -6.8825    1.3279    1.9106 H   0  0  0  0  0  0  0  0  0  0  0  0
   -8.1090    0.6543    4.2550 H   0  0  0  0  0  0  0  0  0  0  0  0
   -8.8570   -1.9828    3.8992 H   0  0  0  0  0  0  0  0  0  0  0  0
   -5.4663    6.3801   -1.2382 H   0  0  0  0  0  0  0  0  0  0  0  0
   -5.3739    5.1686   -2.5129 H   0  0  0  0  0  0  0  0  0  0  0  0
   -3.8938    5.9986   -2.0000 H   0  0  0  0  0  0  0  0  0  0  0  0
  1  2  1  0  0  0  0
  1 29  1  0  0  0  0
  1 30  1  0  0  0  0
  1 31  1  0  0  0  0
  2  3  2  0  0  0  0
  2  7  1  0  0  0  0
  3  4  1  0  0  0  0
  3 28  1  0  0  0  0
  4  5  2  0  0  0  0
  4 32  1  0  0  0  0
  5  6  1  0  0  0  0
  5  8  1  0  0  0  0
  6  7  2  0  0  0  0
  6 33  1  0  0  0  0
  7 34  1  0  0  0  0
  8  9  1  0  0  0  0
  8 35  1  0  0  0  0
  9 10  2  0  0  0  0
  9 11  1  0  0  0  0
 11 12  1  0  0  0  0
 11 22  1  0  0  0  0
 12 13  1  0  0  0  0
 12 36  1  0  0  0  0
 12 37  1  0  0  0  0
 13 14  1  0  0  0  0
 13 38  1  0  0  0  0
 13 39  1  0  0  0  0
 14 15  1  0  0  0  0
 14 40  1  0  0  0  0
 14 41  1  0  0  0  0
 15 16  1  0  0  0  0
 15 21  1  0  0  0  0
 16 17  1  0  0  0  0
 16 42  1  0  0  0  0
 16 43  1  0  0  0  0
 17 18  1  0  0  0  0
 17 44  1  0  0  0  0
 17 45  1  0  0  0  0
 18 19  1  0  0  0  0
 18 46  1  0  0  0  0
 18 47  1  0  0  0  0
 19 20  1  0  0  0  0
 19 48  1  0  0  0  0
 19 49  1  0  0  0  0
 20 21  1  0  0  0  0
 20 50  1  0  0  0  0
 20 51  1  0  0  0  0
 21 52  1  0  0  0  0
 21 53  1  0  0  0  0
 22 23  1  0  0  0  0
 22 54  1  0  0  0  0
 22 55  1  0  0  0  0
 23 24  2  0  0  0  0
 23 27  1  0  0  0  0
 24 25  1  0  0  0  0
 24 56  1  0  0  0  0
 25 26  2  0  0  0  0
 25 57  1  0  0  0  0
 26 27  1  0  0  0  0
 26 58  1  0  0  0  0
 28 59  1  0  0  0  0
 28 60  1  0  0  0  0
 28 61  1  0  0  0  0
M  END
