
 OpenBabel10072616423D

112118  0  0  0  0  0  0  0  0999 V2000
   10.7920   -4.5804   -6.5540 C   0  0  0  0  0  0  0  0  0  0  0  0
   10.8403   -4.8382   -5.0550 C   0  0  0  0  0  0  0  0  0  0  0  0
   11.0035   -3.5420   -4.2550 C   0  0  0  0  0  0  0  0  0  0  0  0
   10.9949   -3.8136   -2.7467 C   0  0  0  0  0  0  0  0  0  0  0  0
   11.3284   -2.5902   -1.9464 C   0  0  0  0  0  0  0  0  0  0  0  0
   12.5510   -2.1972   -1.6728 N   0  0  0  0  0  0  0  0  0  0  0  0
   12.4180   -1.0585   -0.9076 C   0  0  0  0  0  0  0  0  0  0  0  0
   11.0777   -0.7554   -0.6661 C   0  0  0  0  0  0  0  0  0  0  0  0
   10.4068   -1.7265   -1.3864 N   0  0  0  0  0  0  0  0  0  0  0  0
    8.9880   -1.8040   -1.6446 C   0  0  0  0  0  0  0  0  0  0  0  0
    8.2256   -2.5404   -0.5567 C   0  0  0  0  0  0  0  0  0  0  0  0
    6.7234   -2.4711   -0.8252 C   0  0  0  0  0  0  0  0  0  0  0  0
    6.2643   -3.1297   -2.1402 C   0  0  0  0  0  0  0  0  0  0  0  0
    6.7152   -4.5063   -2.2783 N   0  0  0  0  0  0  0  0  0  0  0  0
    6.2115   -5.4310   -1.3866 C   0  0  0  0  0  0  0  0  0  0  0  0
    5.4433   -5.0860   -0.4964 O   0  0  0  0  0  0  0  0  0  0  0  0
    6.7252   -6.6986   -1.5968 N   0  0  0  0  0  0  0  0  0  0  0  0
    6.3263   -7.8492   -0.8774 C   0  0  0  0  0  0  0  0  0  0  0  0
    5.1540   -7.8440   -0.1382 C   0  0  0  0  0  0  0  0  0  0  0  0
    4.7137   -8.9555    0.5684 C   0  0  0  0  0  0  0  0  0  0  0  0
    5.4966  -10.1021    0.6054 C   0  0  0  0  0  0  0  0  0  0  0  0
    6.6685  -10.1449   -0.1540 C   0  0  0  0  0  0  0  0  0  0  0  0
    7.0734   -9.0282   -0.9091 C   0  0  0  0  0  0  0  0  0  0  0  0
    3.4774   -8.9275    1.2234 N   0  0  0  0  0  0  0  0  0  0  0  0
    2.4377   -8.0902    0.8646 C   0  0  0  0  0  0  0  0  0  0  0  0
    2.3816   -7.3151   -0.0798 O   0  0  0  0  0  0  0  0  0  0  0  0
    1.3952   -8.2457    1.7425 N   0  0  0  0  0  0  0  0  0  0  0  0
    0.2675   -7.3599    1.6009 C   0  0  0  0  0  0  0  0  0  0  0  0
   -0.8214   -7.8920    0.6826 C   0  0  0  0  0  0  0  0  0  0  0  0
   -1.4851   -9.1290    1.2898 C   0  0  0  0  0  0  0  0  0  0  0  0
   -2.0572   -8.9397    2.7156 C   0  0  0  0  0  0  0  0  0  0  0  0
   -3.1574   -7.9956    2.8443 N   0  0  0  0  0  0  0  0  0  0  0  0
   -4.4585   -8.3510    2.5023 C   0  0  0  0  0  0  0  0  0  0  0  0
   -5.2293   -7.2894    2.4556 N   0  0  0  0  0  0  0  0  0  0  0  0
   -4.4279   -6.2197    2.7852 C   0  0  0  0  0  0  0  0  0  0  0  0
   -3.1503   -6.6359    3.1790 C   0  0  0  0  0  0  0  0  0  0  0  0
   -2.2199   -5.6505    3.6738 C   0  0  0  0  0  0  0  0  0  0  0  0
   -0.9632   -5.8989    4.2648 C   0  0  0  0  0  0  0  0  0  0  0  0
    0.0002   -4.8828    4.3068 C   0  0  0  0  0  0  0  0  0  0  0  0
   -0.3493   -3.5788    3.9752 C   0  0  0  0  0  0  0  0  0  0  0  0
   -1.6745   -3.2862    3.6599 C   0  0  0  0  0  0  0  0  0  0  0  0
   -2.6139   -4.2956    3.4797 C   0  0  0  0  0  0  0  0  0  0  0  0
   -3.8387   -3.9234    3.0968 N   0  0  0  0  0  0  0  0  0  0  0  0
   -4.7723   -4.8491    2.7987 C   0  0  0  0  0  0  0  0  0  0  0  0
   -6.0627   -4.3971    2.5337 N   0  0  0  0  0  0  0  0  0  0  0  0
   -4.9276   -9.7462    2.1816 C   0  0  0  0  0  0  0  0  0  0  0  0
   -5.3434  -10.5041    3.4469 C   0  0  0  0  0  0  0  0  0  0  0  0
   -5.8027  -11.9312    3.1346 C   0  0  0  0  0  0  0  0  0  0  0  0
   -6.2165  -12.6780    4.3951 C   0  0  0  0  0  0  0  0  0  0  0  0
   10.7224    0.3622    0.1490 C   0  0  0  0  0  0  0  0  0  0  0  0
    9.4034    0.7564    0.4816 C   0  0  0  0  0  0  0  0  0  0  0  0
    9.1805    1.8758    1.2843 C   0  0  0  0  0  0  0  0  0  0  0  0
   10.2609    2.6017    1.7679 C   0  0  0  0  0  0  0  0  0  0  0  0
   11.5627    2.2079    1.4465 C   0  0  0  0  0  0  0  0  0  0  0  0
   11.8246    1.1041    0.6474 C   0  0  0  0  0  0  0  0  0  0  0  0
   13.1102    0.8118    0.4001 N   0  0  0  0  0  0  0  0  0  0  0  0
   13.4353   -0.2440   -0.3750 C   0  0  0  0  0  0  0  0  0  0  0  0
   14.7854   -0.5076   -0.5888 N   0  0  0  0  0  0  0  0  0  0  0  0
   10.6718   -5.5234   -7.0978 H   0  0  0  0  0  0  0  0  0  0  0  0
   11.7145   -4.1054   -6.9030 H   0  0  0  0  0  0  0  0  0  0  0  0
    9.9500   -3.9315   -6.8147 H   0  0  0  0  0  0  0  0  0  0  0  0
   11.6796   -5.5094   -4.8376 H   0  0  0  0  0  0  0  0  0  0  0  0
    9.9238   -5.3582   -4.7522 H   0  0  0  0  0  0  0  0  0  0  0  0
   10.2119   -2.8327   -4.5307 H   0  0  0  0  0  0  0  0  0  0  0  0
   11.9551   -3.0702   -4.5273 H   0  0  0  0  0  0  0  0  0  0  0  0
   11.7596   -4.5650   -2.5181 H   0  0  0  0  0  0  0  0  0  0  0  0
   10.0396   -4.2525   -2.4359 H   0  0  0  0  0  0  0  0  0  0  0  0
    8.8575   -2.3145   -2.6025 H   0  0  0  0  0  0  0  0  0  0  0  0
    8.6138   -0.7874   -1.7966 H   0  0  0  0  0  0  0  0  0  0  0  0
    8.4274   -2.0888    0.4215 H   0  0  0  0  0  0  0  0  0  0  0  0
    8.5686   -3.5800   -0.4697 H   0  0  0  0  0  0  0  0  0  0  0  0
    6.4141   -1.4193   -0.8312 H   0  0  0  0  0  0  0  0  0  0  0  0
    6.2163   -2.9275    0.0311 H   0  0  0  0  0  0  0  0  0  0  0  0
    6.6291   -2.5778   -3.0131 H   0  0  0  0  0  0  0  0  0  0  0  0
    5.1678   -3.1108   -2.1876 H   0  0  0  0  0  0  0  0  0  0  0  0
    6.8119   -4.8629   -3.2189 H   0  0  0  0  0  0  0  0  0  0  0  0
    7.5629   -6.7581   -2.1522 H   0  0  0  0  0  0  0  0  0  0  0  0
    4.5438   -6.9534   -0.1166 H   0  0  0  0  0  0  0  0  0  0  0  0
    5.1830  -10.9750    1.1717 H   0  0  0  0  0  0  0  0  0  0  0  0
    7.2597  -11.0579   -0.1667 H   0  0  0  0  0  0  0  0  0  0  0  0
    7.9819   -9.0973   -1.4984 H   0  0  0  0  0  0  0  0  0  0  0  0
    3.2245   -9.7267    1.7813 H   0  0  0  0  0  0  0  0  0  0  0  0
    1.7387   -8.3879    2.6796 H   0  0  0  0  0  0  0  0  0  0  0  0
    0.5895   -6.3592    1.3064 H   0  0  0  0  0  0  0  0  0  0  0  0
   -0.1118   -7.2743    2.6040 H   0  0  0  0  0  0  0  0  0  0  0  0
   -0.4142   -8.1463   -0.3063 H   0  0  0  0  0  0  0  0  0  0  0  0
   -1.5706   -7.1098    0.5111 H   0  0  0  0  0  0  0  0  0  0  0  0
   -0.7354   -9.9314    1.3333 H   0  0  0  0  0  0  0  0  0  0  0  0
   -2.2569   -9.4900    0.5986 H   0  0  0  0  0  0  0  0  0  0  0  0
   -1.2938   -8.7098    3.4590 H   0  0  0  0  0  0  0  0  0  0  0  0
   -2.4427   -9.9179    3.0231 H   0  0  0  0  0  0  0  0  0  0  0  0
   -0.7050   -6.8883    4.6346 H   0  0  0  0  0  0  0  0  0  0  0  0
    1.0344   -5.1124    4.5599 H   0  0  0  0  0  0  0  0  0  0  0  0
    0.3932   -2.7799    3.9687 H   0  0  0  0  0  0  0  0  0  0  0  0
   -1.9600   -2.2467    3.4888 H   0  0  0  0  0  0  0  0  0  0  0  0
   -6.2135   -3.5146    3.0098 H   0  0  0  0  0  0  0  0  0  0  0  0
   -6.7477   -5.1252    2.7037 H   0  0  0  0  0  0  0  0  0  0  0  0
   -4.1680  -10.3120    1.6314 H   0  0  0  0  0  0  0  0  0  0  0  0
   -5.7894   -9.6745    1.5061 H   0  0  0  0  0  0  0  0  0  0  0  0
   -6.1559   -9.9599    3.9439 H   0  0  0  0  0  0  0  0  0  0  0  0
   -4.5082  -10.5401    4.1572 H   0  0  0  0  0  0  0  0  0  0  0  0
   -4.9948  -12.4853    2.6424 H   0  0  0  0  0  0  0  0  0  0  0  0
   -6.6501  -11.9068    2.4397 H   0  0  0  0  0  0  0  0  0  0  0  0
   -5.3795  -12.7618    5.0958 H   0  0  0  0  0  0  0  0  0  0  0  0
   -6.5498  -13.6907    4.1454 H   0  0  0  0  0  0  0  0  0  0  0  0
   -7.0405  -12.1669    4.9033 H   0  0  0  0  0  0  0  0  0  0  0  0
    8.5373    0.2076    0.1368 H   0  0  0  0  0  0  0  0  0  0  0  0
    8.1666    2.1791    1.5350 H   0  0  0  0  0  0  0  0  0  0  0  0
   10.1000    3.4721    2.3994 H   0  0  0  0  0  0  0  0  0  0  0  0
   12.4015    2.7828    1.8342 H   0  0  0  0  0  0  0  0  0  0  0  0
   15.3387   -0.1437    0.1748 H   0  0  0  0  0  0  0  0  0  0  0  0
   14.9360   -1.4750   -0.8564 H   0  0  0  0  0  0  0  0  0  0  0  0
  1  2  1  0  0  0  0
  1 59  1  0  0  0  0
  1 60  1  0  0  0  0
  1 61  1  0  0  0  0
  2  3  1  0  0  0  0
  2 62  1  0  0  0  0
  2 63  1  0  0  0  0
  3  4  1  0  0  0  0
  3 64  1  0  0  0  0
  3 65  1  0  0  0  0
  4  5  1  0  0  0  0
  4 66  1  0  0  0  0
  4 67  1  0  0  0  0
  5  6  2  0  0  0  0
  5  9  1  0  0  0  0
  6  7  1  0  0  0  0
  7  8  2  0  0  0  0
  7 57  1  0  0  0  0
  8  9  1  0  0  0  0
  8 50  1  0  0  0  0
  9 10  1  0  0  0  0
 10 11  1  0  0  0  0
 10 68  1  0  0  0  0
 10 69  1  0  0  0  0
 11 12  1  0  0  0  0
 11 70  1  0  0  0  0
 11 71  1  0  0  0  0
 12 13  1  0  0  0  0
 12 72  1  0  0  0  0
 12 73  1  0  0  0  0
 13 14  1  0  0  0  0
 13 74  1  0  0  0  0
 13 75  1  0  0  0  0
 14 15  1  0  0  0  0
 14 76  1  0  0  0  0
 15 16  2  0  0  0  0
 15 17  1  0  0  0  0
 17 18  1  0  0  0  0
 17 77  1  0  0  0  0
 18 19  2  0  0  0  0
 18 23  1  0  0  0  0
 19 20  1  0  0  0  0
 19 78  1  0  0  0  0
 20 21  2  0  0  0  0
 20 24  1  0  0  0  0
 21 22  1  0  0  0  0
 21 79  1  0  0  0  0
 22 23  2  0  0  0  0
 22 80  1  0  0  0  0
 23 81  1  0  0  0  0
 24 25  1  0  0  0  0
 24 82  1  0  0  0  0
 25 26  2  0  0  0  0
 25 27  1  0  0  0  0
 27 28  1  0  0  0  0
 27 83  1  0  0  0  0
 28 29  1  0  0  0  0
 28 84  1  0  0  0  0
 28 85  1  0  0  0  0
 29 30  1  0  0  0  0
 29 86  1  0  0  0  0
 29 87  1  0  0  0  0
 30 31  1  0  0  0  0
 30 88  1  0  0  0  0
 30 89  1  0  0  0  0
 31 32  1  0  0  0  0
 31 90  1  0  0  0  0
 31 91  1  0  0  0  0
 32 33  1  0  0  0  0
 32 36  1  0  0  0  0
 33 34  2  0  0  0  0
 33 46  1  0  0  0  0
 34 35  1  0  0  0  0
 35 36  2  0  0  0  0
 35 44  1  0  0  0  0
 36 37  1  0  0  0  0
 37 38  2  0  0  0  0
 37 42  1  0  0  0  0
 38 39  1  0  0  0  0
 38 92  1  0  0  0  0
 39 40  2  0  0  0  0
 39 93  1  0  0  0  0
 40 41  1  0  0  0  0
 40 94  1  0  0  0  0
 41 42  2  0  0  0  0
 41 95  1  0  0  0  0
 42 43  1  0  0  0  0
 43 44  2  0  0  0  0
 44 45  1  0  0  0  0
 45 96  1  0  0  0  0
 45 97  1  0  0  0  0
 46 47  1  0  0  0  0
 46 98  1  0  0  0  0
 46 99  1  0  0  0  0
 47 48  1  0  0  0  0
 47100  1  0  0  0  0
 47101  1  0  0  0  0
 48 49  1  0  0  0  0
 48102  1  0  0  0  0
 48103  1  0  0  0  0
 49104  1  0  0  0  0
 49105  1  0  0  0  0
 49106  1  0  0  0  0
 50 51  2  0  0  0  0
 50 55  1  0  0  0  0
 51 52  1  0  0  0  0
 51107  1  0  0  0  0
 52 53  2  0  0  0  0
 52108  1  0  0  0  0
 53 54  1  0  0  0  0
 53109  1  0  0  0  0
 54 55  2  0  0  0  0
 54110  1  0  0  0  0
 55 56  1  0  0  0  0
 56 57  2  0  0  0  0
 57 58  1  0  0  0  0
 58111  1  0  0  0  0
 58112  1  0  0  0  0
M  END
