
 OpenBabel10072616413D

167171  0  0  0  0  0  0  0  0999 V2000
    6.6648   -9.6701   13.2903 C   0  0  0  0  0  0  0  0  0  0  0  0
    7.6226   -8.6772   12.6522 C   0  0  0  0  0  0  0  0  0  0  0  0
    7.8009   -9.0185   11.1818 C   0  0  0  0  0  0  0  0  0  0  0  0
    8.7587   -8.0257   10.5437 C   0  0  0  0  0  0  0  0  0  0  0  0
    8.9370   -8.3670    9.0733 C   0  0  0  0  0  0  0  0  0  0  0  0
    9.8949   -7.3741    8.4352 C   0  0  0  0  0  0  0  0  0  0  0  0
   10.0715   -7.7142    6.9643 C   0  0  0  0  0  0  0  0  0  0  0  0
   11.0294   -6.7214    6.3262 C   0  0  0  0  0  0  0  0  0  0  0  0
   11.1930   -7.0380    4.9517 O   0  0  0  0  0  0  0  0  0  0  0  0
   11.4699   -6.0082    4.0139 C   0  0  0  0  0  0  0  0  0  0  0  0
   12.1437   -4.9336    4.4068 C   0  0  0  0  0  0  0  0  0  0  0  0
   12.5596   -3.9959    3.4927 C   0  0  0  0  0  0  0  0  0  0  0  0
   12.2133   -4.0976    2.1739 C   0  0  0  0  0  0  0  0  0  0  0  0
   11.6091   -5.2140    1.8097 C   0  0  0  0  0  0  0  0  0  0  0  0
   11.0319   -6.1435    2.7069 C   0  0  0  0  0  0  0  0  0  0  0  0
   10.0229   -7.1952    2.2754 C   0  0  0  0  0  0  0  0  0  0  0  0
    9.1878   -6.9483    1.2303 C   0  0  0  0  0  0  0  0  0  0  0  0
    8.1787   -8.0000    0.7988 C   0  0  0  0  0  0  0  0  0  0  0  0
    7.0557   -7.5371    0.2623 C   0  0  0  0  0  0  0  0  0  0  0  0
    6.1157   -8.4007   -0.2463 C   0  0  0  0  0  0  0  0  0  0  0  0
    6.2694   -9.7544   -0.1314 C   0  0  0  0  0  0  0  0  0  0  0  0
    7.4291  -10.1761    0.3390 C   0  0  0  0  0  0  0  0  0  0  0  0
    8.3713   -9.3562    1.0040 C   0  0  0  0  0  0  0  0  0  0  0  0
   12.4885   -3.0588    1.2458 O   0  0  0  0  0  0  0  0  0  0  0  0
   11.6351   -2.8606    0.1283 C   0  0  0  0  0  0  0  0  0  0  0  0
   11.6381   -1.3902   -0.2571 C   0  0  0  0  0  0  0  0  0  0  0  0
   10.7231   -1.1778   -1.4520 C   0  0  0  0  0  0  0  0  0  0  0  0
   10.7261    0.2926   -1.8374 C   0  0  0  0  0  0  0  0  0  0  0  0
    9.8110    0.5050   -3.0324 C   0  0  0  0  0  0  0  0  0  0  0  0
    9.8140    1.9754   -3.4177 C   0  0  0  0  0  0  0  0  0  0  0  0
    8.8974    2.1882   -4.6114 C   0  0  0  0  0  0  0  0  0  0  0  0
   13.4169   -2.8287    3.9541 C   0  0  0  0  0  0  0  0  0  0  0  0
   12.8284   -1.6738    4.3671 C   0  0  0  0  0  0  0  0  0  0  0  0
   11.3134   -1.5507    4.3671 C   0  0  0  0  0  0  0  0  0  0  0  0
   10.0565   -1.4485    4.3671 N   0  0  0  0  0  0  0  0  0  0  0  0
   13.6857   -0.5066    4.8285 C   0  0  0  0  0  0  0  0  0  0  0  0
   14.8899   -0.3787    4.2836 C   0  0  0  0  0  0  0  0  0  0  0  0
   15.6411    0.7503    4.5043 C   0  0  0  0  0  0  0  0  0  0  0  0
   15.2098    1.7258    5.3598 C   0  0  0  0  0  0  0  0  0  0  0  0
   13.9795    1.5992    5.8227 C   0  0  0  0  0  0  0  0  0  0  0  0
   13.2141    0.4112    5.7526 C   0  0  0  0  0  0  0  0  0  0  0  0
   16.0986    2.8933    5.7566 C   0  0  0  0  0  0  0  0  0  0  0  0
   17.0409    3.3558    4.8912 C   0  0  0  0  0  0  0  0  0  0  0  0
   17.9296    4.5232    5.2881 C   0  0  0  0  0  0  0  0  0  0  0  0
   19.1594    4.6030    4.7935 C   0  0  0  0  0  0  0  0  0  0  0  0
   19.9285    5.7211    5.0084 C   0  0  0  0  0  0  0  0  0  0  0  0
   19.4848    6.7365    5.8094 C   0  0  0  0  0  0  0  0  0  0  0  0
   18.2325    6.6556    6.2208 C   0  0  0  0  0  0  0  0  0  0  0  0
   17.4412    5.4843    6.1577 C   0  0  0  0  0  0  0  0  0  0  0  0
   17.6388    7.8255    6.7643 O   0  0  0  0  0  0  0  0  0  0  0  0
   16.6297    7.7139    7.7571 C   0  0  0  0  0  0  0  0  0  0  0  0
   16.1644    9.1024    8.1648 C   0  0  0  0  0  0  0  0  0  0  0  0
   15.0828    8.9829    9.2261 C   0  0  0  0  0  0  0  0  0  0  0  0
   14.6175   10.3713    9.6338 C   0  0  0  0  0  0  0  0  0  0  0  0
   13.5373   10.2520   10.6965 C   0  0  0  0  0  0  0  0  0  0  0  0
   13.0720   11.6404   11.1042 C   0  0  0  0  0  0  0  0  0  0  0  0
   11.9904   11.5209   12.1654 C   0  0  0  0  0  0  0  0  0  0  0  0
   11.5237   12.9093   12.5717 C   0  0  0  0  0  0  0  0  0  0  0  0
   20.3844    7.8960    6.2049 C   0  0  0  0  0  0  0  0  0  0  0  0
   21.7267    7.7071    6.3196 C   0  0  0  0  0  0  0  0  0  0  0  0
   22.6264    8.8666    6.7151 C   0  0  0  0  0  0  0  0  0  0  0  0
   22.8776    9.0868    8.0003 C   0  0  0  0  0  0  0  0  0  0  0  0
   23.8063   10.0253    8.3807 C   0  0  0  0  0  0  0  0  0  0  0  0
   24.4262   10.8169    7.4541 C   0  0  0  0  0  0  0  0  0  0  0  0
   24.2073   10.5188    6.1863 C   0  0  0  0  0  0  0  0  0  0  0  0
   23.1698    9.6727    5.7284 C   0  0  0  0  0  0  0  0  0  0  0  0
   19.6843    3.5229    4.0357 O   0  0  0  0  0  0  0  0  0  0  0  0
   21.0809    3.2662    4.0387 C   0  0  0  0  0  0  0  0  0  0  0  0
   21.3231    1.7792    3.8370 C   0  0  0  0  0  0  0  0  0  0  0  0
   22.8180    1.5041    3.8422 C   0  0  0  0  0  0  0  0  0  0  0  0
   23.0602    0.0171    3.6406 C   0  0  0  0  0  0  0  0  0  0  0  0
   24.5551   -0.2583    3.6478 C   0  0  0  0  0  0  0  0  0  0  0  0
   24.7973   -1.7452    3.4462 C   0  0  0  0  0  0  0  0  0  0  0  0
   26.2920   -2.0209    3.4554 C   0  0  0  0  0  0  0  0  0  0  0  0
   26.5342   -3.5079    3.2537 C   0  0  0  0  0  0  0  0  0  0  0  0
   15.9345    3.5442    7.1204 C   0  0  0  0  0  0  0  0  0  0  0  0
   15.7983    4.0841    8.2518 N   0  0  0  0  0  0  0  0  0  0  0  0
    6.5393   -9.4298   14.3254 H   0  0  0  0  0  0  0  0  0  0  0  0
    7.0633  -10.6589   13.1994 H   0  0  0  0  0  0  0  0  0  0  0  0
    5.7175   -9.6204   12.7952 H   0  0  0  0  0  0  0  0  0  0  0  0
    8.5699   -8.7269   13.1473 H   0  0  0  0  0  0  0  0  0  0  0  0
    7.2242   -7.6883   12.7431 H   0  0  0  0  0  0  0  0  0  0  0  0
    6.8536   -8.9688   10.6867 H   0  0  0  0  0  0  0  0  0  0  0  0
    8.1994  -10.0074   11.0909 H   0  0  0  0  0  0  0  0  0  0  0  0
    9.7060   -8.0753   11.0388 H   0  0  0  0  0  0  0  0  0  0  0  0
    8.3603   -7.0368   10.6345 H   0  0  0  0  0  0  0  0  0  0  0  0
    7.9897   -8.3173    8.5782 H   0  0  0  0  0  0  0  0  0  0  0  0
    9.3355   -9.3558    8.9824 H   0  0  0  0  0  0  0  0  0  0  0  0
   10.8426   -7.4248    8.9293 H   0  0  0  0  0  0  0  0  0  0  0  0
    9.4970   -6.3851    8.5273 H   0  0  0  0  0  0  0  0  0  0  0  0
    9.1238   -7.6635    6.4702 H   0  0  0  0  0  0  0  0  0  0  0  0
   10.4694   -8.7032    6.8722 H   0  0  0  0  0  0  0  0  0  0  0  0
   11.9775   -6.7731    6.8194 H   0  0  0  0  0  0  0  0  0  0  0  0
   10.6323   -5.7322    6.4196 H   0  0  0  0  0  0  0  0  0  0  0  0
   12.3569   -4.8015    5.4079 H   0  0  0  0  0  0  0  0  0  0  0  0
   11.5541   -5.4230    0.8006 H   0  0  0  0  0  0  0  0  0  0  0  0
    9.9712   -8.0966    2.7754 H   0  0  0  0  0  0  0  0  0  0  0  0
    9.2394   -6.0470    0.7303 H   0  0  0  0  0  0  0  0  0  0  0  0
    6.8873   -6.5196    0.2271 H   0  0  0  0  0  0  0  0  0  0  0  0
    5.2818   -8.0220   -0.7218 H   0  0  0  0  0  0  0  0  0  0  0  0
    5.5194  -10.4114   -0.3979 H   0  0  0  0  0  0  0  0  0  0  0  0
    7.6646  -11.1729    0.2128 H   0  0  0  0  0  0  0  0  0  0  0  0
    9.1329   -9.7344    1.5888 H   0  0  0  0  0  0  0  0  0  0  0  0
   10.6399   -3.1608    0.3818 H   0  0  0  0  0  0  0  0  0  0  0  0
   11.9852   -3.4460   -0.6961 H   0  0  0  0  0  0  0  0  0  0  0  0
   12.6331   -1.0903   -0.5120 H   0  0  0  0  0  0  0  0  0  0  0  0
   11.2894   -0.8046    0.5678 H   0  0  0  0  0  0  0  0  0  0  0  0
    9.7281   -1.4776   -1.1971 H   0  0  0  0  0  0  0  0  0  0  0  0
   11.0718   -1.7634   -2.2769 H   0  0  0  0  0  0  0  0  0  0  0  0
   11.7211    0.5925   -2.0923 H   0  0  0  0  0  0  0  0  0  0  0  0
   10.3773    0.8782   -1.0125 H   0  0  0  0  0  0  0  0  0  0  0  0
    8.8161    0.2052   -2.7775 H   0  0  0  0  0  0  0  0  0  0  0  0
   10.1598   -0.0805   -3.8572 H   0  0  0  0  0  0  0  0  0  0  0  0
   10.8088    2.2749   -3.6739 H   0  0  0  0  0  0  0  0  0  0  0  0
    9.4666    2.5611   -2.5924 H   0  0  0  0  0  0  0  0  0  0  0  0
    9.2448    1.6025   -5.4367 H   0  0  0  0  0  0  0  0  0  0  0  0
    8.8995    3.2232   -4.8827 H   0  0  0  0  0  0  0  0  0  0  0  0
    7.9027    1.8887   -4.3551 H   0  0  0  0  0  0  0  0  0  0  0  0
   14.4456   -2.9123    3.9541 H   0  0  0  0  0  0  0  0  0  0  0  0
   15.2648   -1.1342    3.6889 H   0  0  0  0  0  0  0  0  0  0  0  0
   16.5440    0.8637    4.0174 H   0  0  0  0  0  0  0  0  0  0  0  0
   13.5461    2.4240    6.2664 H   0  0  0  0  0  0  0  0  0  0  0  0
   12.3801    0.2436    6.3370 H   0  0  0  0  0  0  0  0  0  0  0  0
   17.1523    2.9139    3.9653 H   0  0  0  0  0  0  0  0  0  0  0  0
   20.8544    5.7955    4.5588 H   0  0  0  0  0  0  0  0  0  0  0  0
   16.5784    5.3576    6.7096 H   0  0  0  0  0  0  0  0  0  0  0  0
   17.0246    7.2049    8.6114 H   0  0  0  0  0  0  0  0  0  0  0  0
   15.8020    7.1615    7.3639 H   0  0  0  0  0  0  0  0  0  0  0  0
   15.7708    9.6119    7.3102 H   0  0  0  0  0  0  0  0  0  0  0  0
   16.9918    9.6543    8.5594 H   0  0  0  0  0  0  0  0  0  0  0  0
   15.4764    8.4734   10.0807 H   0  0  0  0  0  0  0  0  0  0  0  0
   14.2554    8.4310    8.8315 H   0  0  0  0  0  0  0  0  0  0  0  0
   14.2226   10.8803    8.7794 H   0  0  0  0  0  0  0  0  0  0  0  0
   15.4452   10.9237   10.0270 H   0  0  0  0  0  0  0  0  0  0  0  0
   13.9322    9.7429   11.5508 H   0  0  0  0  0  0  0  0  0  0  0  0
   12.7096    9.6996   10.3032 H   0  0  0  0  0  0  0  0  0  0  0  0
   12.6784   12.1499   10.2496 H   0  0  0  0  0  0  0  0  0  0  0  0
   13.8994   12.1923   11.4987 H   0  0  0  0  0  0  0  0  0  0  0  0
   12.3844   11.0127   13.0206 H   0  0  0  0  0  0  0  0  0  0  0  0
   11.1636   10.9678   11.7714 H   0  0  0  0  0  0  0  0  0  0  0  0
   12.3505   13.4624   12.9658 H   0  0  0  0  0  0  0  0  0  0  0  0
   10.7623   12.8252   13.3188 H   0  0  0  0  0  0  0  0  0  0  0  0
   11.1297   13.4176   11.7165 H   0  0  0  0  0  0  0  0  0  0  0  0
   19.9770    8.8266    6.3865 H   0  0  0  0  0  0  0  0  0  0  0  0
   22.1342    6.7765    6.1380 H   0  0  0  0  0  0  0  0  0  0  0  0
   22.3706    8.5482    8.7200 H   0  0  0  0  0  0  0  0  0  0  0  0
   24.0393   10.1342    9.3801 H   0  0  0  0  0  0  0  0  0  0  0  0
   25.0324   11.6050    7.7306 H   0  0  0  0  0  0  0  0  0  0  0  0
   24.8368   10.9317    5.4804 H   0  0  0  0  0  0  0  0  0  0  0  0
   22.8472    9.6575    4.7483 H   0  0  0  0  0  0  0  0  0  0  0  0
   21.4977    3.5716    4.9756 H   0  0  0  0  0  0  0  0  0  0  0  0
   21.5460    3.8140    3.2459 H   0  0  0  0  0  0  0  0  0  0  0  0
   20.9076    1.4741    2.8994 H   0  0  0  0  0  0  0  0  0  0  0  0
   20.8569    1.2313    4.6290 H   0  0  0  0  0  0  0  0  0  0  0  0
   23.2336    1.8092    4.7798 H   0  0  0  0  0  0  0  0  0  0  0  0
   23.2843    2.0520    3.0502 H   0  0  0  0  0  0  0  0  0  0  0  0
   22.6459   -0.2877    2.7023 H   0  0  0  0  0  0  0  0  0  0  0  0
   22.5928   -0.5309    4.4318 H   0  0  0  0  0  0  0  0  0  0  0  0
   24.9694    0.0466    4.5860 H   0  0  0  0  0  0  0  0  0  0  0  0
   25.0225    0.2898    2.8566 H   0  0  0  0  0  0  0  0  0  0  0  0
   24.3842   -2.0498    2.5073 H   0  0  0  0  0  0  0  0  0  0  0  0
   24.3286   -2.2933    4.2366 H   0  0  0  0  0  0  0  0  0  0  0  0
   26.7051   -1.7163    4.3943 H   0  0  0  0  0  0  0  0  0  0  0  0
   26.7607   -1.4728    2.6649 H   0  0  0  0  0  0  0  0  0  0  0  0
   26.0656   -4.0560    4.0442 H   0  0  0  0  0  0  0  0  0  0  0  0
   27.5865   -3.7019    3.2602 H   0  0  0  0  0  0  0  0  0  0  0  0
   26.1212   -3.8124    2.3149 H   0  0  0  0  0  0  0  0  0  0  0  0
  1  2  1  0  0  0  0
  1 78  1  0  0  0  0
  1 79  1  0  0  0  0
  1 80  1  0  0  0  0
  2  3  1  0  0  0  0
  2 81  1  0  0  0  0
  2 82  1  0  0  0  0
  3  4  1  0  0  0  0
  3 83  1  0  0  0  0
  3 84  1  0  0  0  0
  4  5  1  0  0  0  0
  4 85  1  0  0  0  0
  4 86  1  0  0  0  0
  5  6  1  0  0  0  0
  5 87  1  0  0  0  0
  5 88  1  0  0  0  0
  6  7  1  0  0  0  0
  6 89  1  0  0  0  0
  6 90  1  0  0  0  0
  7  8  1  0  0  0  0
  7 91  1  0  0  0  0
  7 92  1  0  0  0  0
  8  9  1  0  0  0  0
  8 93  1  0  0  0  0
  8 94  1  0  0  0  0
  9 10  1  0  0  0  0
 10 11  2  0  0  0  0
 10 15  1  0  0  0  0
 11 12  1  0  0  0  0
 11 95  1  0  0  0  0
 12 13  2  0  0  0  0
 12 32  1  0  0  0  0
 13 14  1  0  0  0  0
 13 24  1  0  0  0  0
 14 15  2  0  0  0  0
 14 96  1  0  0  0  0
 15 16  1  0  0  0  0
 16 17  2  0  0  0  0
 16 97  1  0  0  0  0
 17 18  1  0  0  0  0
 17 98  1  0  0  0  0
 18 19  2  0  0  0  0
 18 23  1  0  0  0  0
 19 20  1  0  0  0  0
 19 99  1  0  0  0  0
 20 21  2  0  0  0  0
 20100  1  0  0  0  0
 21 22  1  0  0  0  0
 21101  1  0  0  0  0
 22 23  2  0  0  0  0
 22102  1  0  0  0  0
 23103  1  0  0  0  0
 24 25  1  0  0  0  0
 25 26  1  0  0  0  0
 25104  1  0  0  0  0
 25105  1  0  0  0  0
 26 27  1  0  0  0  0
 26106  1  0  0  0  0
 26107  1  0  0  0  0
 27 28  1  0  0  0  0
 27108  1  0  0  0  0
 27109  1  0  0  0  0
 28 29  1  0  0  0  0
 28110  1  0  0  0  0
 28111  1  0  0  0  0
 29 30  1  0  0  0  0
 29112  1  0  0  0  0
 29113  1  0  0  0  0
 30 31  1  0  0  0  0
 30114  1  0  0  0  0
 30115  1  0  0  0  0
 31116  1  0  0  0  0
 31117  1  0  0  0  0
 31118  1  0  0  0  0
 32 33  2  0  0  0  0
 32119  1  0  0  0  0
 33 34  1  0  0  0  0
 33 36  1  0  0  0  0
 34 35  3  0  0  0  0
 36 37  2  0  0  0  0
 36 41  1  0  0  0  0
 37 38  1  0  0  0  0
 37120  1  0  0  0  0
 38 39  2  0  0  0  0
 38121  1  0  0  0  0
 39 40  1  0  0  0  0
 39 42  1  0  0  0  0
 40 41  2  0  0  0  0
 40122  1  0  0  0  0
 41123  1  0  0  0  0
 42 43  2  0  0  0  0
 42 76  1  0  0  0  0
 43 44  1  0  0  0  0
 43124  1  0  0  0  0
 44 45  2  0  0  0  0
 44 49  1  0  0  0  0
 45 46  1  0  0  0  0
 45 67  1  0  0  0  0
 46 47  2  0  0  0  0
 46125  1  0  0  0  0
 47 48  1  0  0  0  0
 47 59  1  0  0  0  0
 48 49  2  0  0  0  0
 48 50  1  0  0  0  0
 49126  1  0  0  0  0
 50 51  1  0  0  0  0
 51 52  1  0  0  0  0
 51127  1  0  0  0  0
 51128  1  0  0  0  0
 52 53  1  0  0  0  0
 52129  1  0  0  0  0
 52130  1  0  0  0  0
 53 54  1  0  0  0  0
 53131  1  0  0  0  0
 53132  1  0  0  0  0
 54 55  1  0  0  0  0
 54133  1  0  0  0  0
 54134  1  0  0  0  0
 55 56  1  0  0  0  0
 55135  1  0  0  0  0
 55136  1  0  0  0  0
 56 57  1  0  0  0  0
 56137  1  0  0  0  0
 56138  1  0  0  0  0
 57 58  1  0  0  0  0
 57139  1  0  0  0  0
 57140  1  0  0  0  0
 58141  1  0  0  0  0
 58142  1  0  0  0  0
 58143  1  0  0  0  0
 59 60  2  0  0  0  0
 59144  1  0  0  0  0
 60 61  1  0  0  0  0
 60145  1  0  0  0  0
 61 62  2  0  0  0  0
 61 66  1  0  0  0  0
 62 63  1  0  0  0  0
 62146  1  0  0  0  0
 63 64  2  0  0  0  0
 63147  1  0  0  0  0
 64 65  1  0  0  0  0
 64148  1  0  0  0  0
 65 66  2  0  0  0  0
 65149  1  0  0  0  0
 66150  1  0  0  0  0
 67 68  1  0  0  0  0
 68 69  1  0  0  0  0
 68151  1  0  0  0  0
 68152  1  0  0  0  0
 69 70  1  0  0  0  0
 69153  1  0  0  0  0
 69154  1  0  0  0  0
 70 71  1  0  0  0  0
 70155  1  0  0  0  0
 70156  1  0  0  0  0
 71 72  1  0  0  0  0
 71157  1  0  0  0  0
 71158  1  0  0  0  0
 72 73  1  0  0  0  0
 72159  1  0  0  0  0
 72160  1  0  0  0  0
 73 74  1  0  0  0  0
 73161  1  0  0  0  0
 73162  1  0  0  0  0
 74 75  1  0  0  0  0
 74163  1  0  0  0  0
 74164  1  0  0  0  0
 75165  1  0  0  0  0
 75166  1  0  0  0  0
 75167  1  0  0  0  0
 76 77  3  0  0  0  0
M  END
