
 OpenBabel10072619543D

 39 41  0  0  0  0  0  0  0  0999 V2000
    1.3824   -0.3535    0.5693 C   0  0  0  0  0  0  0  0  0  0  0  0
    0.6606   -1.1166   -0.3451 C   0  0  0  0  0  0  0  0  0  0  0  0
   -0.6834   -0.8290   -0.5871 C   0  0  0  0  0  0  0  0  0  0  0  0
   -1.3269    0.2316    0.0753 C   0  0  0  0  0  0  0  0  0  0  0  0
   -0.5814    0.9928    0.9900 C   0  0  0  0  0  0  0  0  0  0  0  0
    0.7623    0.7041    1.2326 C   0  0  0  0  0  0  0  0  0  0  0  0
   -2.7498    0.5250   -0.1774 C   0  0  0  0  0  0  0  0  0  0  0  0
   -3.6782    0.2743    0.8561 C   0  0  0  0  0  0  0  0  0  0  0  0
   -5.0426    0.4961    0.6757 C   0  0  0  0  0  0  0  0  0  0  0  0
   -5.5029    0.9708   -0.5468 C   0  0  0  0  0  0  0  0  0  0  0  0
   -4.6059    1.2159   -1.5906 C   0  0  0  0  0  0  0  0  0  0  0  0
   -3.2334    0.9900   -1.4273 C   0  0  0  0  0  0  0  0  0  0  0  0
   -2.3123    1.2384   -2.4761 N   0  0  0  0  0  0  0  0  0  0  0  0
   -2.5911    1.2305   -3.8311 C   0  0  0  0  0  0  0  0  0  0  0  0
   -3.6805    0.9756   -4.3161 O   0  0  0  0  0  0  0  0  0  0  0  0
   -1.4424    1.5056   -4.5587 N   0  0  0  0  0  0  0  0  0  0  0  0
   -1.2683    1.3149   -5.9453 C   0  0  0  0  0  0  0  0  0  0  0  0
   -2.1395    0.5556   -6.7293 C   0  0  0  0  0  0  0  0  0  0  0  0
   -1.8830    0.3506   -8.0892 C   0  0  0  0  0  0  0  0  0  0  0  0
   -0.7460    0.8997   -8.6774 C   0  0  0  0  0  0  0  0  0  0  0  0
    0.1324    1.6605   -7.9043 C   0  0  0  0  0  0  0  0  0  0  0  0
   -0.1288    1.8709   -6.5406 C   0  0  0  0  0  0  0  0  0  0  0  0
    1.3108    2.2127   -8.5068 C   0  0  0  0  0  0  0  0  0  0  0  0
    2.2646    2.6560   -8.9961 N   0  0  0  0  0  0  0  0  0  0  0  0
    2.4241   -0.5874    0.7715 H   0  0  0  0  0  0  0  0  0  0  0  0
    1.1408   -1.9436   -0.8630 H   0  0  0  0  0  0  0  0  0  0  0  0
   -1.2417   -1.4404   -1.2948 H   0  0  0  0  0  0  0  0  0  0  0  0
   -1.0523    1.8174    1.5242 H   0  0  0  0  0  0  0  0  0  0  0  0
    1.3284    1.2977    1.9457 H   0  0  0  0  0  0  0  0  0  0  0  0
   -3.3317   -0.1110    1.8143 H   0  0  0  0  0  0  0  0  0  0  0  0
   -5.7442    0.2937    1.4825 H   0  0  0  0  0  0  0  0  0  0  0  0
   -6.5654    1.1454   -0.6949 H   0  0  0  0  0  0  0  0  0  0  0  0
   -5.0054    1.6070   -2.5234 H   0  0  0  0  0  0  0  0  0  0  0  0
   -1.3394    1.1339   -2.2400 H   0  0  0  0  0  0  0  0  0  0  0  0
   -0.7220    2.0121   -4.0676 H   0  0  0  0  0  0  0  0  0  0  0  0
   -3.0222    0.0821   -6.3049 H   0  0  0  0  0  0  0  0  0  0  0  0
   -2.5675   -0.2518   -8.6807 H   0  0  0  0  0  0  0  0  0  0  0  0
   -0.5535    0.7319   -9.7368 H   0  0  0  0  0  0  0  0  0  0  0  0
    0.5653    2.4667   -5.9524 H   0  0  0  0  0  0  0  0  0  0  0  0
  1  2  2  0  0  0  0
  1  6  1  0  0  0  0
  1 25  1  0  0  0  0
  2  3  1  0  0  0  0
  2 26  1  0  0  0  0
  3  4  2  0  0  0  0
  3 27  1  0  0  0  0
  4  5  1  0  0  0  0
  4  7  1  0  0  0  0
  5  6  2  0  0  0  0
  5 28  1  0  0  0  0
  6 29  1  0  0  0  0
  7  8  2  0  0  0  0
  7 12  1  0  0  0  0
  8  9  1  0  0  0  0
  8 30  1  0  0  0  0
  9 10  2  0  0  0  0
  9 31  1  0  0  0  0
 10 11  1  0  0  0  0
 10 32  1  0  0  0  0
 11 12  2  0  0  0  0
 11 33  1  0  0  0  0
 12 13  1  0  0  0  0
 13 14  1  0  0  0  0
 13 34  1  0  0  0  0
 14 15  2  0  0  0  0
 14 16  1  0  0  0  0
 16 17  1  0  0  0  0
 16 35  1  0  0  0  0
 17 18  2  0  0  0  0
 17 22  1  0  0  0  0
 18 19  1  0  0  0  0
 18 36  1  0  0  0  0
 19 20  2  0  0  0  0
 19 37  1  0  0  0  0
 20 21  1  0  0  0  0
 20 38  1  0  0  0  0
 21 22  2  0  0  0  0
 21 23  1  0  0  0  0
 22 39  1  0  0  0  0
 23 24  3  0  0  0  0
M  END
