
 OpenBabel10072616323D

 46 49  0  0  0  0  0  0  0  0999 V2000
    4.8173    0.8020    3.9911 C   0  0  0  0  0  0  0  0  0  0  0  0
    4.0044    0.4184    2.8909 O   0  0  0  0  0  0  0  0  0  0  0  0
    4.2642   -0.7655    2.2646 C   0  0  0  0  0  0  0  0  0  0  0  0
    5.3297   -1.6354    2.5003 C   0  0  0  0  0  0  0  0  0  0  0  0
    5.4010   -2.8720    1.8243 C   0  0  0  0  0  0  0  0  0  0  0  0
    4.4076   -3.2535    0.9111 C   0  0  0  0  0  0  0  0  0  0  0  0
    3.4044   -2.3272    0.6061 C   0  0  0  0  0  0  0  0  0  0  0  0
    3.3301   -1.1056    1.2836 C   0  0  0  0  0  0  0  0  0  0  0  0
    4.3244   -4.5928    0.2989 C   0  0  0  0  0  0  0  0  0  0  0  0
    4.1463   -5.7100    1.0413 C   0  0  0  0  0  0  0  0  0  0  0  0
    3.7930   -6.9518    0.4350 C   0  0  0  0  0  0  0  0  0  0  0  0
    3.0208   -7.1523   -0.6127 N   0  0  0  0  0  0  0  0  0  0  0  0
    2.8273   -8.5060   -0.7046 C   0  0  0  0  0  0  0  0  0  0  0  0
    2.0619   -9.2348   -1.6325 C   0  0  0  0  0  0  0  0  0  0  0  0
    2.0182  -10.6307   -1.5344 C   0  0  0  0  0  0  0  0  0  0  0  0
    2.7288  -11.2894   -0.5348 C   0  0  0  0  0  0  0  0  0  0  0  0
    3.5035  -10.5795    0.3968 C   0  0  0  0  0  0  0  0  0  0  0  0
    3.5299   -9.1779    0.2889 C   0  0  0  0  0  0  0  0  0  0  0  0
    4.2031   -8.1724    0.9762 N   0  0  0  0  0  0  0  0  0  0  0  0
    5.4313   -8.3997    1.7364 C   0  0  0  0  0  0  0  0  0  0  0  0
    5.2985   -8.5356    3.2362 C   0  0  0  0  0  0  0  0  0  0  0  0
    5.2032   -9.8012    3.8384 C   0  0  0  0  0  0  0  0  0  0  0  0
    5.2759   -9.9434    5.2292 C   0  0  0  0  0  0  0  0  0  0  0  0
    5.4327   -8.8233    6.0398 C   0  0  0  0  0  0  0  0  0  0  0  0
    5.4995   -7.5588    5.4627 C   0  0  0  0  0  0  0  0  0  0  0  0
    5.4353   -7.4167    4.0727 C   0  0  0  0  0  0  0  0  0  0  0  0
    4.4325    1.7570    4.3673 H   0  0  0  0  0  0  0  0  0  0  0  0
    5.8509    0.9667    3.6742 H   0  0  0  0  0  0  0  0  0  0  0  0
    4.7602    0.0799    4.8112 H   0  0  0  0  0  0  0  0  0  0  0  0
    6.1121   -1.3870    3.2105 H   0  0  0  0  0  0  0  0  0  0  0  0
    6.2357   -3.5389    2.0279 H   0  0  0  0  0  0  0  0  0  0  0  0
    2.6424   -2.5635   -0.1338 H   0  0  0  0  0  0  0  0  0  0  0  0
    2.5166   -0.4189    1.0646 H   0  0  0  0  0  0  0  0  0  0  0  0
    4.2652   -4.6277   -0.7848 H   0  0  0  0  0  0  0  0  0  0  0  0
    4.1210   -5.6421    2.1179 H   0  0  0  0  0  0  0  0  0  0  0  0
    1.5154   -8.7147   -2.4104 H   0  0  0  0  0  0  0  0  0  0  0  0
    1.4245  -11.2005   -2.2469 H   0  0  0  0  0  0  0  0  0  0  0  0
    2.6830  -12.3759   -0.4771 H   0  0  0  0  0  0  0  0  0  0  0  0
    4.0477  -11.1116    1.1658 H   0  0  0  0  0  0  0  0  0  0  0  0
    6.1282   -7.5893    1.4936 H   0  0  0  0  0  0  0  0  0  0  0  0
    5.8973   -9.3074    1.3313 H   0  0  0  0  0  0  0  0  0  0  0  0
    5.1242  -10.7008    3.2338 H   0  0  0  0  0  0  0  0  0  0  0  0
    5.2371  -10.9330    5.6787 H   0  0  0  0  0  0  0  0  0  0  0  0
    5.5162   -8.9357    7.1183 H   0  0  0  0  0  0  0  0  0  0  0  0
    5.6315   -6.6832    6.0930 H   0  0  0  0  0  0  0  0  0  0  0  0
    5.5487   -6.4204    3.6554 H   0  0  0  0  0  0  0  0  0  0  0  0
  1  2  1  0  0  0  0
  1 27  1  0  0  0  0
  1 28  1  0  0  0  0
  1 29  1  0  0  0  0
  2  3  1  0  0  0  0
  3  4  2  0  0  0  0
  3  8  1  0  0  0  0
  4  5  1  0  0  0  0
  4 30  1  0  0  0  0
  5  6  2  0  0  0  0
  5 31  1  0  0  0  0
  6  7  1  0  0  0  0
  6  9  1  0  0  0  0
  7  8  2  0  0  0  0
  7 32  1  0  0  0  0
  8 33  1  0  0  0  0
  9 10  2  0  0  0  0
  9 34  1  0  0  0  0
 10 11  1  0  0  0  0
 10 35  1  0  0  0  0
 11 12  2  0  0  0  0
 11 19  1  0  0  0  0
 12 13  1  0  0  0  0
 13 14  2  0  0  0  0
 13 18  1  0  0  0  0
 14 15  1  0  0  0  0
 14 36  1  0  0  0  0
 15 16  2  0  0  0  0
 15 37  1  0  0  0  0
 16 17  1  0  0  0  0
 16 38  1  0  0  0  0
 17 18  2  0  0  0  0
 17 39  1  0  0  0  0
 18 19  1  0  0  0  0
 19 20  1  0  0  0  0
 20 21  1  0  0  0  0
 20 40  1  0  0  0  0
 20 41  1  0  0  0  0
 21 22  2  0  0  0  0
 21 26  1  0  0  0  0
 22 23  1  0  0  0  0
 22 42  1  0  0  0  0
 23 24  2  0  0  0  0
 23 43  1  0  0  0  0
 24 25  1  0  0  0  0
 24 44  1  0  0  0  0
 25 26  2  0  0  0  0
 25 45  1  0  0  0  0
 26 46  1  0  0  0  0
M  END
