
 OpenBabel10072620223D

 36 37  0  0  0  0  0  0  0  0999 V2000
    2.4045   -0.3784   -0.3369 C   0  0  0  0  0  0  0  0  0  0  0  0
    0.9493   -0.1218   -0.0476 C   0  0  0  0  0  0  0  0  0  0  0  0
    0.3975    1.1551    0.1846 C   0  0  0  0  0  0  0  0  0  0  0  0
   -0.9961    1.2856    0.3216 C   0  0  0  0  0  0  0  0  0  0  0  0
   -1.8333    0.1663    0.3201 C   0  0  0  0  0  0  0  0  0  0  0  0
   -1.2768   -1.1038    0.1657 C   0  0  0  0  0  0  0  0  0  0  0  0
    0.1015   -1.2505   -0.0251 C   0  0  0  0  0  0  0  0  0  0  0  0
   -2.1432   -2.2876    0.1923 N   0  3  0  0  0  0  0  0  0  0  0  0
   -3.3655   -2.1034    0.2898 O   0  0  0  0  0  0  0  0  0  0  0  0
   -1.6050   -3.4010    0.1117 O   0  5  0  0  0  0  0  0  0  0  0  0
    1.1393    2.3614    0.2291 N   0  0  0  0  0  0  0  0  0  0  0  0
    2.3996    2.5146    0.7934 C   0  0  0  0  0  0  0  0  0  0  0  0
    2.8469    1.6859    1.5819 O   0  0  0  0  0  0  0  0  0  0  0  0
    3.0458    3.7197    0.4273 N   0  0  0  0  0  0  0  0  0  0  0  0
    2.4554    4.6440   -0.5485 C   0  0  0  0  0  0  0  0  0  0  0  0
    4.3372    4.0950    0.9687 C   0  0  0  0  0  0  0  0  0  0  0  0
    5.2319    3.1608    1.5131 C   0  0  0  0  0  0  0  0  0  0  0  0
    6.4817    3.5489    2.0187 C   0  0  0  0  0  0  0  0  0  0  0  0
    6.8679    4.8833    1.9888 C   0  0  0  0  0  0  0  0  0  0  0  0
    6.0015    5.8305    1.4583 C   0  0  0  0  0  0  0  0  0  0  0  0
    4.7549    5.4399    0.9509 C   0  0  0  0  0  0  0  0  0  0  0  0
    2.8756    0.4689   -0.8426 H   0  0  0  0  0  0  0  0  0  0  0  0
    2.5163   -1.2304   -1.0176 H   0  0  0  0  0  0  0  0  0  0  0  0
    2.9420   -0.6147    0.5860 H   0  0  0  0  0  0  0  0  0  0  0  0
   -1.4511    2.2637    0.4630 H   0  0  0  0  0  0  0  0  0  0  0  0
   -2.9042    0.3020    0.4546 H   0  0  0  0  0  0  0  0  0  0  0  0
    0.5340   -2.2397   -0.1737 H   0  0  0  0  0  0  0  0  0  0  0  0
    0.5870    3.2039    0.2929 H   0  0  0  0  0  0  0  0  0  0  0  0
    1.7314    4.1485   -1.2001 H   0  0  0  0  0  0  0  0  0  0  0  0
    3.2302    5.0494   -1.2083 H   0  0  0  0  0  0  0  0  0  0  0  0
    1.9449    5.4484   -0.0096 H   0  0  0  0  0  0  0  0  0  0  0  0
    5.0096    2.0979    1.5317 H   0  0  0  0  0  0  0  0  0  0  0  0
    7.1497    2.7980    2.4341 H   0  0  0  0  0  0  0  0  0  0  0  0
    7.8376    5.1821    2.3793 H   0  0  0  0  0  0  0  0  0  0  0  0
    6.2889    6.8785    1.4406 H   0  0  0  0  0  0  0  0  0  0  0  0
    4.1108    6.2289    0.5747 H   0  0  0  0  0  0  0  0  0  0  0  0
  1  2  1  0  0  0  0
  1 22  1  0  0  0  0
  1 23  1  0  0  0  0
  1 24  1  0  0  0  0
  2  3  2  0  0  0  0
  2  7  1  0  0  0  0
  3  4  1  0  0  0  0
  3 11  1  0  0  0  0
  4  5  2  0  0  0  0
  4 25  1  0  0  0  0
  5  6  1  0  0  0  0
  5 26  1  0  0  0  0
  6  7  2  0  0  0  0
  6  8  1  0  0  0  0
  7 27  1  0  0  0  0
  8  9  2  0  0  0  0
  8 10  1  0  0  0  0
 11 12  1  0  0  0  0
 11 28  1  0  0  0  0
 12 13  2  0  0  0  0
 12 14  1  0  0  0  0
 14 15  1  0  0  0  0
 14 16  1  0  0  0  0
 15 29  1  0  0  0  0
 15 30  1  0  0  0  0
 15 31  1  0  0  0  0
 16 17  2  0  0  0  0
 16 21  1  0  0  0  0
 17 18  1  0  0  0  0
 17 32  1  0  0  0  0
 18 19  2  0  0  0  0
 18 33  1  0  0  0  0
 19 20  1  0  0  0  0
 19 34  1  0  0  0  0
 20 21  2  0  0  0  0
 20 35  1  0  0  0  0
 21 36  1  0  0  0  0
M  CHG  2   8   1  10  -1
M  END
