
 OpenBabel10072616333D

 52 56  0  0  0  0  0  0  0  0999 V2000
   -0.1353    2.0931   -0.0843 C   0  0  0  0  0  0  0  0  0  0  0  0
    1.0727    1.2401    0.2345 C   0  0  0  0  0  0  0  0  0  0  0  0
    2.4103    1.5905    0.1617 C   0  0  0  0  0  0  0  0  0  0  0  0
    3.3585    0.6281    0.5134 C   0  0  0  0  0  0  0  0  0  0  0  0
    2.9626   -0.6549    0.9273 C   0  0  0  0  0  0  0  0  0  0  0  0
    1.6096   -1.0007    0.9983 C   0  0  0  0  0  0  0  0  0  0  0  0
    0.6683   -0.0469    0.6507 C   0  0  0  0  0  0  0  0  0  0  0  0
   -0.7773   -0.1090    0.6320 C   0  0  0  0  0  0  0  0  0  0  0  0
   -1.2818    1.1378    0.2047 C   0  0  0  0  0  0  0  0  0  0  0  0
   -2.6452    1.3762    0.0967 C   0  0  0  0  0  0  0  0  0  0  0  0
   -3.5252    0.3349    0.4295 C   0  0  0  0  0  0  0  0  0  0  0  0
   -3.0173   -0.9133    0.8548 C   0  0  0  0  0  0  0  0  0  0  0  0
   -1.6396   -1.1399    0.9568 C   0  0  0  0  0  0  0  0  0  0  0  0
   -5.0085    0.4972    0.3621 C   0  0  0  0  0  0  0  0  0  0  0  0
   -5.7474   -0.4250    0.6981 O   0  0  0  0  0  0  0  0  0  0  0  0
   -5.5727    1.8115   -0.1167 C   0  0  0  0  0  0  0  0  0  0  0  0
   -7.0554    1.7695   -0.1087 N   0  3  0  0  0  0  0  0  0  0  0  0
   -7.7155    1.2980   -1.1907 C   0  0  0  0  0  0  0  0  0  0  0  0
   -9.1010    1.2793   -1.2135 C   0  0  0  0  0  0  0  0  0  0  0  0
   -9.8104    1.7403   -0.1075 C   0  0  0  0  0  0  0  0  0  0  0  0
   -9.1334    2.1923    1.0214 C   0  0  0  0  0  0  0  0  0  0  0  0
   -7.7359    2.1841    0.9885 C   0  0  0  0  0  0  0  0  0  0  0  0
   -9.7738    2.6713    2.1899 N   0  0  0  0  0  0  0  0  0  0  0  0
  -11.1403    2.7170    2.4293 C   0  0  0  0  0  0  0  0  0  0  0  0
  -12.0117    2.2835    1.6869 O   0  0  0  0  0  0  0  0  0  0  0  0
  -11.5368    3.3170    3.7360 C   0  0  0  0  0  0  0  0  0  0  0  0
  -10.8371    4.3941    4.2987 C   0  0  0  0  0  0  0  0  0  0  0  0
  -11.2476    4.9278    5.5225 C   0  0  0  0  0  0  0  0  0  0  0  0
  -12.3555    4.3960    6.1816 C   0  0  0  0  0  0  0  0  0  0  0  0
  -13.0649    3.3379    5.6150 C   0  0  0  0  0  0  0  0  0  0  0  0
  -12.6605    2.8005    4.3922 C   0  0  0  0  0  0  0  0  0  0  0  0
   -0.1381    2.3882   -1.1378 H   0  0  0  0  0  0  0  0  0  0  0  0
   -0.1819    2.9619    0.5790 H   0  0  0  0  0  0  0  0  0  0  0  0
    2.7209    2.5804   -0.1559 H   0  0  0  0  0  0  0  0  0  0  0  0
    4.4180    0.8722    0.4677 H   0  0  0  0  0  0  0  0  0  0  0  0
    3.7208   -1.3874    1.1963 H   0  0  0  0  0  0  0  0  0  0  0  0
    1.3189   -1.9947    1.3208 H   0  0  0  0  0  0  0  0  0  0  0  0
   -2.9703    2.3553   -0.2338 H   0  0  0  0  0  0  0  0  0  0  0  0
   -3.6942   -1.7270    1.1168 H   0  0  0  0  0  0  0  0  0  0  0  0
   -1.2635   -2.1038    1.2877 H   0  0  0  0  0  0  0  0  0  0  0  0
   -5.2554    2.0210   -1.1431 H   0  0  0  0  0  0  0  0  0  0  0  0
   -5.2631    2.6280    0.5432 H   0  0  0  0  0  0  0  0  0  0  0  0
   -7.1276    0.9392   -2.0309 H   0  0  0  0  0  0  0  0  0  0  0  0
   -9.6346    0.9030   -2.0838 H   0  0  0  0  0  0  0  0  0  0  0  0
  -10.8965    1.7202   -0.1608 H   0  0  0  0  0  0  0  0  0  0  0  0
   -7.1425    2.5099    1.8369 H   0  0  0  0  0  0  0  0  0  0  0  0
   -9.1873    2.9468    2.9685 H   0  0  0  0  0  0  0  0  0  0  0  0
   -9.9985    4.8569    3.7882 H   0  0  0  0  0  0  0  0  0  0  0  0
  -10.7160    5.7702    5.9593 H   0  0  0  0  0  0  0  0  0  0  0  0
  -12.6782    4.8169    7.1318 H   0  0  0  0  0  0  0  0  0  0  0  0
  -13.9392    2.9357    6.1218 H   0  0  0  0  0  0  0  0  0  0  0  0
  -13.2260    1.9802    3.9534 H   0  0  0  0  0  0  0  0  0  0  0  0
  1  2  1  0  0  0  0
  1  9  1  0  0  0  0
  1 32  1  0  0  0  0
  1 33  1  0  0  0  0
  2  3  2  0  0  0  0
  2  7  1  0  0  0  0
  3  4  1  0  0  0  0
  3 34  1  0  0  0  0
  4  5  2  0  0  0  0
  4 35  1  0  0  0  0
  5  6  1  0  0  0  0
  5 36  1  0  0  0  0
  6  7  2  0  0  0  0
  6 37  1  0  0  0  0
  7  8  1  0  0  0  0
  8  9  2  0  0  0  0
  8 13  1  0  0  0  0
  9 10  1  0  0  0  0
 10 11  2  0  0  0  0
 10 38  1  0  0  0  0
 11 12  1  0  0  0  0
 11 14  1  0  0  0  0
 12 13  2  0  0  0  0
 12 39  1  0  0  0  0
 13 40  1  0  0  0  0
 14 15  2  0  0  0  0
 14 16  1  0  0  0  0
 16 17  1  0  0  0  0
 16 41  1  0  0  0  0
 16 42  1  0  0  0  0
 17 18  2  0  0  0  0
 17 22  1  0  0  0  0
 18 19  1  0  0  0  0
 18 43  1  0  0  0  0
 19 20  2  0  0  0  0
 19 44  1  0  0  0  0
 20 21  1  0  0  0  0
 20 45  1  0  0  0  0
 21 22  2  0  0  0  0
 21 23  1  0  0  0  0
 22 46  1  0  0  0  0
 23 24  1  0  0  0  0
 23 47  1  0  0  0  0
 24 25  2  0  0  0  0
 24 26  1  0  0  0  0
 26 27  2  0  0  0  0
 26 31  1  0  0  0  0
 27 28  1  0  0  0  0
 27 48  1  0  0  0  0
 28 29  2  0  0  0  0
 28 49  1  0  0  0  0
 29 30  1  0  0  0  0
 29 50  1  0  0  0  0
 30 31  2  0  0  0  0
 30 51  1  0  0  0  0
 31 52  1  0  0  0  0
M  CHG  1  17   1
M  END
