
 OpenBabel10072619483D

 52 53  0  0  0  0  0  0  0  0999 V2000
    1.6260   -0.3929   -0.3434 C   0  0  0  0  0  0  0  0  0  0  0  0
    3.0332   -0.1909   -0.2989 O   0  0  0  0  0  0  0  0  0  0  0  0
    3.4462    0.9145    0.3995 C   0  0  0  0  0  0  0  0  0  0  0  0
    2.8285    1.3542    1.5755 C   0  0  0  0  0  0  0  0  0  0  0  0
    3.3246    2.4762    2.2583 C   0  0  0  0  0  0  0  0  0  0  0  0
    4.4699    3.1309    1.7741 C   0  0  0  0  0  0  0  0  0  0  0  0
    5.1131    2.6725    0.6223 C   0  0  0  0  0  0  0  0  0  0  0  0
    4.5782    1.5867   -0.0802 C   0  0  0  0  0  0  0  0  0  0  0  0
    5.2133    1.1783   -1.2288 O   0  0  0  0  0  0  0  0  0  0  0  0
    4.4378    1.5174   -2.3788 C   0  0  0  0  0  0  0  0  0  0  0  0
    6.2095    3.2952    0.0838 O   0  0  0  0  0  0  0  0  0  0  0  0
    7.2039    3.6518    1.0392 C   0  0  0  0  0  0  0  0  0  0  0  0
    2.6570    3.0529    3.4657 C   0  0  0  0  0  0  0  0  0  0  0  0
    2.9711    4.1679    3.8806 O   0  0  0  0  0  0  0  0  0  0  0  0
    1.6747    2.2988    4.0827 N   0  0  0  0  0  0  0  0  0  0  0  0
    0.8774    2.9288    5.0597 N   0  0  0  0  0  0  0  0  0  0  0  0
   -0.5018    2.6926    5.1032 C   0  0  0  0  0  0  0  0  0  0  0  0
   -1.2286    1.5068    4.1655 S   0  0  0  0  0  0  0  0  0  0  0  0
   -1.0903    3.4994    6.0642 N   0  0  0  0  0  0  0  0  0  0  0  0
   -2.4394    3.7440    6.4285 C   0  0  0  0  0  0  0  0  0  0  0  0
   -3.5375    3.4973    5.5950 C   0  0  0  0  0  0  0  0  0  0  0  0
   -4.8411    3.7802    6.0224 C   0  0  0  0  0  0  0  0  0  0  0  0
   -5.0309    4.3586    7.2846 C   0  0  0  0  0  0  0  0  0  0  0  0
   -3.9463    4.6205    8.1239 C   0  0  0  0  0  0  0  0  0  0  0  0
   -2.6503    4.3204    7.7032 C   0  0  0  0  0  0  0  0  0  0  0  0
   -1.5152    4.5363    8.4526 O   0  0  0  0  0  0  0  0  0  0  0  0
   -1.6882    5.1048    9.7478 C   0  0  0  0  0  0  0  0  0  0  0  0
   -6.6097    4.7727    7.8611 Cl  0  0  0  0  0  0  0  0  0  0  0  0
   -5.9645    3.5642    5.2674 O   0  0  0  0  0  0  0  0  0  0  0  0
   -5.8581    2.6700    4.1656 C   0  0  0  0  0  0  0  0  0  0  0  0
    1.4147   -1.0787   -1.1688 H   0  0  0  0  0  0  0  0  0  0  0  0
    1.0904    0.5422   -0.5392 H   0  0  0  0  0  0  0  0  0  0  0  0
    1.2740   -0.8599    0.5810 H   0  0  0  0  0  0  0  0  0  0  0  0
    1.9606    0.8205    1.9396 H   0  0  0  0  0  0  0  0  0  0  0  0
    4.8382    4.0111    2.2948 H   0  0  0  0  0  0  0  0  0  0  0  0
    5.1291    1.7937   -3.1802 H   0  0  0  0  0  0  0  0  0  0  0  0
    3.7605    2.3647   -2.2119 H   0  0  0  0  0  0  0  0  0  0  0  0
    3.8652    0.6455   -2.7100 H   0  0  0  0  0  0  0  0  0  0  0  0
    8.1587    3.7404    0.5114 H   0  0  0  0  0  0  0  0  0  0  0  0
    7.3231    2.8884    1.8166 H   0  0  0  0  0  0  0  0  0  0  0  0
    6.9721    4.6250    1.4821 H   0  0  0  0  0  0  0  0  0  0  0  0
    1.3270    1.4055    3.7500 H   0  0  0  0  0  0  0  0  0  0  0  0
    1.2237    3.8489    5.3334 H   0  0  0  0  0  0  0  0  0  0  0  0
   -0.4380    3.8577    6.7571 H   0  0  0  0  0  0  0  0  0  0  0  0
   -3.3789    3.1336    4.5899 H   0  0  0  0  0  0  0  0  0  0  0  0
   -4.1495    5.0569    9.0948 H   0  0  0  0  0  0  0  0  0  0  0  0
   -2.2946    4.4570   10.3908 H   0  0  0  0  0  0  0  0  0  0  0  0
   -2.1197    6.1080    9.6754 H   0  0  0  0  0  0  0  0  0  0  0  0
   -0.6986    5.1996   10.2061 H   0  0  0  0  0  0  0  0  0  0  0  0
   -6.8696    2.5019    3.7818 H   0  0  0  0  0  0  0  0  0  0  0  0
   -5.4516    1.6998    4.4723 H   0  0  0  0  0  0  0  0  0  0  0  0
   -5.2682    3.1119    3.3563 H   0  0  0  0  0  0  0  0  0  0  0  0
  1  2  1  0  0  0  0
  1 31  1  0  0  0  0
  1 32  1  0  0  0  0
  1 33  1  0  0  0  0
  2  3  1  0  0  0  0
  3  4  2  0  0  0  0
  3  8  1  0  0  0  0
  4  5  1  0  0  0  0
  4 34  1  0  0  0  0
  5  6  2  0  0  0  0
  5 13  1  0  0  0  0
  6  7  1  0  0  0  0
  6 35  1  0  0  0  0
  7  8  2  0  0  0  0
  7 11  1  0  0  0  0
  8  9  1  0  0  0  0
  9 10  1  0  0  0  0
 10 36  1  0  0  0  0
 10 37  1  0  0  0  0
 10 38  1  0  0  0  0
 11 12  1  0  0  0  0
 12 39  1  0  0  0  0
 12 40  1  0  0  0  0
 12 41  1  0  0  0  0
 13 14  2  0  0  0  0
 13 15  1  0  0  0  0
 15 16  1  0  0  0  0
 15 42  1  0  0  0  0
 16 17  1  0  0  0  0
 16 43  1  0  0  0  0
 17 18  2  0  0  0  0
 17 19  1  0  0  0  0
 19 20  1  0  0  0  0
 19 44  1  0  0  0  0
 20 21  2  0  0  0  0
 20 25  1  0  0  0  0
 21 22  1  0  0  0  0
 21 45  1  0  0  0  0
 22 23  2  0  0  0  0
 22 29  1  0  0  0  0
 23 24  1  0  0  0  0
 23 28  1  0  0  0  0
 24 25  2  0  0  0  0
 24 46  1  0  0  0  0
 25 26  1  0  0  0  0
 26 27  1  0  0  0  0
 27 47  1  0  0  0  0
 27 48  1  0  0  0  0
 27 49  1  0  0  0  0
 29 30  1  0  0  0  0
 30 50  1  0  0  0  0
 30 51  1  0  0  0  0
 30 52  1  0  0  0  0
M  END
