
 OpenBabel10072620083D

 62 64  0  0  0  0  0  0  0  0999 V2000
    1.7788   -1.4977   -2.8404 C   0  0  0  0  0  0  0  0  0  0  0  0
    1.9978   -0.4655   -1.7491 C   0  0  0  0  0  0  0  0  0  0  0  0
    3.0311   -0.9115   -0.8556 O   0  0  0  0  0  0  0  0  0  0  0  0
    4.3105   -0.5665   -1.1880 C   0  0  0  0  0  0  0  0  0  0  0  0
    4.5796    0.1611   -2.1376 O   0  0  0  0  0  0  0  0  0  0  0  0
    5.3376   -1.1943   -0.3353 C   0  0  0  0  0  0  0  0  0  0  0  0
    5.0916   -1.7340    0.9231 C   0  0  0  0  0  0  0  0  0  0  0  0
    6.4778   -2.5301    1.5322 S   0  0  0  0  0  0  0  0  0  0  0  0
    7.5006   -1.9273    0.3066 C   0  0  0  0  0  0  0  0  0  0  0  0
    6.7594   -1.2904   -0.6871 C   0  0  0  0  0  0  0  0  0  0  0  0
    7.3190   -0.7031   -1.9518 C   0  0  0  0  0  0  0  0  0  0  0  0
    8.9476   -2.1382    0.4094 C   0  0  0  0  0  0  0  0  0  0  0  0
    9.7562   -1.9620   -0.4915 O   0  0  0  0  0  0  0  0  0  0  0  0
    9.2954   -2.5250    1.6734 O   0  0  0  0  0  0  0  0  0  0  0  0
   10.6759   -2.7301    2.0716 C   0  0  0  0  0  0  0  0  0  0  0  0
   11.4770   -1.4289    1.9755 C   0  0  0  0  0  0  0  0  0  0  0  0
   10.6055   -3.1467    3.5507 C   0  0  0  0  0  0  0  0  0  0  0  0
   11.3177   -3.8661    1.2751 C   0  0  0  0  0  0  0  0  0  0  0  0
    3.9513   -1.6149    1.6678 N   0  0  0  0  0  0  0  0  0  0  0  0
    3.6896   -2.2214    2.8870 C   0  0  0  0  0  0  0  0  0  0  0  0
    3.1848   -1.6870    4.0161 C   0  0  0  0  0  0  0  0  0  0  0  0
    2.9623   -2.5425    5.1366 C   0  0  0  0  0  0  0  0  0  0  0  0
    2.7688   -3.2560    6.0334 N   0  0  0  0  0  0  0  0  0  0  0  0
    2.9691   -0.2694    4.0908 C   0  0  0  0  0  0  0  0  0  0  0  0
    2.7943    0.5487    3.0603 N   0  0  0  0  0  0  0  0  0  0  0  0
    2.7084    1.8745    3.4685 C   0  0  0  0  0  0  0  0  0  0  0  0
    2.8411    2.0580    4.8291 C   0  0  0  0  0  0  0  0  0  0  0  0
    3.0113    0.5550    5.6216 S   0  0  0  0  0  0  0  0  0  0  0  0
    2.5269    2.9602    2.5048 C   0  0  0  0  0  0  0  0  0  0  0  0
    2.0648    4.2255    2.8944 C   0  0  0  0  0  0  0  0  0  0  0  0
    1.8952    5.2505    1.9577 C   0  0  0  0  0  0  0  0  0  0  0  0
    2.1811    5.0340    0.6072 C   0  0  0  0  0  0  0  0  0  0  0  0
    2.6465    3.7756    0.2097 C   0  0  0  0  0  0  0  0  0  0  0  0
    2.8148    2.7497    1.1490 C   0  0  0  0  0  0  0  0  0  0  0  0
    1.9875    6.1277   -0.4019 C   0  0  0  0  0  0  0  0  0  0  0  0
    1.0150   -1.1595   -3.5463 H   0  0  0  0  0  0  0  0  0  0  0  0
    1.4612   -2.4512   -2.4055 H   0  0  0  0  0  0  0  0  0  0  0  0
    2.7046   -1.6909   -3.3914 H   0  0  0  0  0  0  0  0  0  0  0  0
    1.0849   -0.3499   -1.1558 H   0  0  0  0  0  0  0  0  0  0  0  0
    2.2270    0.5167   -2.1759 H   0  0  0  0  0  0  0  0  0  0  0  0
    8.3884   -0.8786   -2.0757 H   0  0  0  0  0  0  0  0  0  0  0  0
    7.1647    0.3812   -1.9511 H   0  0  0  0  0  0  0  0  0  0  0  0
    6.8149   -1.1300   -2.8259 H   0  0  0  0  0  0  0  0  0  0  0  0
   10.9593   -0.6109    2.4894 H   0  0  0  0  0  0  0  0  0  0  0  0
   11.6120   -1.1092    0.9395 H   0  0  0  0  0  0  0  0  0  0  0  0
   12.4735   -1.5419    2.4142 H   0  0  0  0  0  0  0  0  0  0  0  0
   10.1061   -2.3764    4.1515 H   0  0  0  0  0  0  0  0  0  0  0  0
   11.6031   -3.3184    3.9700 H   0  0  0  0  0  0  0  0  0  0  0  0
   10.0183   -4.0650    3.6726 H   0  0  0  0  0  0  0  0  0  0  0  0
   11.4687   -3.5902    0.2296 H   0  0  0  0  0  0  0  0  0  0  0  0
   10.6809   -4.7573    1.2763 H   0  0  0  0  0  0  0  0  0  0  0  0
   12.2959   -4.1344    1.6841 H   0  0  0  0  0  0  0  0  0  0  0  0
    3.4546   -0.7187    1.5759 H   0  0  0  0  0  0  0  0  0  0  0  0
    3.9456   -3.2821    2.8625 H   0  0  0  0  0  0  0  0  0  0  0  0
    2.8483    2.9732    5.4023 H   0  0  0  0  0  0  0  0  0  0  0  0
    1.8210    4.4452    3.9299 H   0  0  0  0  0  0  0  0  0  0  0  0
    1.5479    6.2226    2.3015 H   0  0  0  0  0  0  0  0  0  0  0  0
    2.8943    3.5875   -0.8333 H   0  0  0  0  0  0  0  0  0  0  0  0
    3.1901    1.7865    0.8119 H   0  0  0  0  0  0  0  0  0  0  0  0
    1.7081    7.0696    0.0827 H   0  0  0  0  0  0  0  0  0  0  0  0
    1.1922    5.8634   -1.1068 H   0  0  0  0  0  0  0  0  0  0  0  0
    2.9157    6.3019   -0.9548 H   0  0  0  0  0  0  0  0  0  0  0  0
  1  2  1  0  0  0  0
  1 36  1  0  0  0  0
  1 37  1  0  0  0  0
  1 38  1  0  0  0  0
  2  3  1  0  0  0  0
  2 39  1  0  0  0  0
  2 40  1  0  0  0  0
  3  4  1  0  0  0  0
  4  5  2  0  0  0  0
  4  6  1  0  0  0  0
  6  7  2  0  0  0  0
  6 10  1  0  0  0  0
  7  8  1  0  0  0  0
  7 19  1  0  0  0  0
  8  9  1  0  0  0  0
  9 10  2  0  0  0  0
  9 12  1  0  0  0  0
 10 11  1  0  0  0  0
 11 41  1  0  0  0  0
 11 42  1  0  0  0  0
 11 43  1  0  0  0  0
 12 13  2  0  0  0  0
 12 14  1  0  0  0  0
 14 15  1  0  0  0  0
 15 16  1  0  0  0  0
 15 17  1  0  0  0  0
 15 18  1  0  0  0  0
 16 44  1  0  0  0  0
 16 45  1  0  0  0  0
 16 46  1  0  0  0  0
 17 47  1  0  0  0  0
 17 48  1  0  0  0  0
 17 49  1  0  0  0  0
 18 50  1  0  0  0  0
 18 51  1  0  0  0  0
 18 52  1  0  0  0  0
 19 20  1  0  0  0  0
 19 53  1  0  0  0  0
 20 21  2  0  0  0  0
 20 54  1  0  0  0  0
 21 22  1  0  0  0  0
 21 24  1  0  0  0  0
 22 23  3  0  0  0  0
 24 25  2  0  0  0  0
 24 28  1  0  0  0  0
 25 26  1  0  0  0  0
 26 27  2  0  0  0  0
 26 29  1  0  0  0  0
 27 28  1  0  0  0  0
 27 55  1  0  0  0  0
 29 30  2  0  0  0  0
 29 34  1  0  0  0  0
 30 31  1  0  0  0  0
 30 56  1  0  0  0  0
 31 32  2  0  0  0  0
 31 57  1  0  0  0  0
 32 33  1  0  0  0  0
 32 35  1  0  0  0  0
 33 34  2  0  0  0  0
 33 58  1  0  0  0  0
 34 59  1  0  0  0  0
 35 60  1  0  0  0  0
 35 61  1  0  0  0  0
 35 62  1  0  0  0  0
M  END
