
 OpenBabel10072619523D

 27 28  0  0  0  0  0  0  0  0999 V2000
    1.0802   -0.1482    0.6578 C   0  0  0  0  0  0  0  0  0  0  0  0
    0.5170   -1.2942    0.0978 C   0  0  0  0  0  0  0  0  0  0  0  0
   -0.7236   -1.2202   -0.5330 C   0  0  0  0  0  0  0  0  0  0  0  0
   -1.3897    0.0141   -0.6006 C   0  0  0  0  0  0  0  0  0  0  0  0
   -0.8455    1.1798   -0.0363 C   0  0  0  0  0  0  0  0  0  0  0  0
    0.4062    1.0767    0.5919 C   0  0  0  0  0  0  0  0  0  0  0  0
   -1.5131    2.4892   -0.0619 C   0  0  0  0  0  0  0  0  0  0  0  0
   -1.9500    3.0853    1.0591 C   0  0  0  0  0  0  0  0  0  0  0  0
   -2.6159    4.3917    1.1391 C   0  0  0  0  0  0  0  0  0  0  0  0
   -3.2671    4.9945    0.0665 C   0  0  0  0  0  0  0  0  0  0  0  0
   -3.8845    6.2289    0.2607 C   0  0  0  0  0  0  0  0  0  0  0  0
   -3.8440    6.8216    1.5159 C   0  0  0  0  0  0  0  0  0  0  0  0
   -3.1866    6.1492    2.5309 C   0  0  0  0  0  0  0  0  0  0  0  0
   -2.5790    4.9527    2.3712 N   0  0  0  0  0  0  0  0  0  0  0  0
   -2.6837    0.0393   -1.2643 N   0  3  0  0  0  0  0  0  0  0  0  0
   -3.5237   -0.7923   -0.8920 O   0  0  0  0  0  0  0  0  0  0  0  0
   -2.8436    0.8558   -2.1829 O   0  5  0  0  0  0  0  0  0  0  0  0
    2.0482   -0.2058    1.1523 H   0  0  0  0  0  0  0  0  0  0  0  0
    1.0446   -2.2437    0.1570 H   0  0  0  0  0  0  0  0  0  0  0  0
   -1.1638   -2.1178   -0.9622 H   0  0  0  0  0  0  0  0  0  0  0  0
    0.8692    1.9546    1.0413 H   0  0  0  0  0  0  0  0  0  0  0  0
   -1.6282    2.9411   -1.0434 H   0  0  0  0  0  0  0  0  0  0  0  0
   -1.8056    2.6123    2.0287 H   0  0  0  0  0  0  0  0  0  0  0  0
   -3.3140    4.5221   -0.9086 H   0  0  0  0  0  0  0  0  0  0  0  0
   -4.3969    6.7185   -0.5627 H   0  0  0  0  0  0  0  0  0  0  0  0
   -4.3137    7.7812    1.6993 H   0  0  0  0  0  0  0  0  0  0  0  0
   -3.1303    6.5655    3.5326 H   0  0  0  0  0  0  0  0  0  0  0  0
  1  2  2  0  0  0  0
  1  6  1  0  0  0  0
  1 18  1  0  0  0  0
  2  3  1  0  0  0  0
  2 19  1  0  0  0  0
  3  4  2  0  0  0  0
  3 20  1  0  0  0  0
  4  5  1  0  0  0  0
  4 15  1  0  0  0  0
  5  6  2  0  0  0  0
  5  7  1  0  0  0  0
  6 21  1  0  0  0  0
  7  8  2  3  0  0  0
  7 22  1  0  0  0  0
  8  9  1  0  0  0  0
  8 23  1  0  0  0  0
  9 10  2  0  0  0  0
  9 14  1  0  0  0  0
 10 11  1  0  0  0  0
 10 24  1  0  0  0  0
 11 12  2  0  0  0  0
 11 25  1  0  0  0  0
 12 13  1  0  0  0  0
 12 26  1  0  0  0  0
 13 14  2  0  0  0  0
 13 27  1  0  0  0  0
 15 16  2  0  0  0  0
 15 17  1  0  0  0  0
M  CHG  2  15   1  17  -1
M  END
