
 OpenBabel10072619513D

 44 46  0  0  0  0  0  0  0  0999 V2000
    0.8977    1.3294    1.5188 C   0  0  0  0  0  0  0  0  0  0  0  0
   -0.3978    1.6852    0.7984 C   0  0  0  0  0  0  0  0  0  0  0  0
   -1.4745    0.6334    1.0079 C   0  0  0  0  0  0  0  0  0  0  0  0
   -1.3744   -0.5879    0.0807 C   0  0  0  0  0  0  0  0  0  0  0  0
   -0.2708   -1.1125   -0.3265 N   0  0  0  0  0  0  0  0  0  0  0  0
    1.0782   -0.6109   -0.0963 C   0  0  0  0  0  0  0  0  0  0  0  0
    1.3304   -0.1192    1.3179 C   0  0  0  0  0  0  0  0  0  0  0  0
   -2.5880   -1.2656   -0.2047 N   0  0  0  0  0  0  0  0  0  0  0  0
   -3.8139   -0.5139   -0.3030 C   0  0  0  0  0  0  0  0  0  0  0  0
   -4.9844   -0.9562    0.3307 C   0  0  0  0  0  0  0  0  0  0  0  0
   -6.1656   -0.2154    0.2428 C   0  0  0  0  0  0  0  0  0  0  0  0
   -6.1923    0.9701   -0.4893 C   0  0  0  0  0  0  0  0  0  0  0  0
   -5.0438    1.4094   -1.1450 C   0  0  0  0  0  0  0  0  0  0  0  0
   -3.8617    0.6695   -1.0587 C   0  0  0  0  0  0  0  0  0  0  0  0
   -2.6960   -2.6620   -0.5277 C   0  0  0  0  0  0  0  0  0  0  0  0
   -3.7445   -3.1938   -0.8954 O   0  0  0  0  0  0  0  0  0  0  0  0
   -1.5118   -3.3602   -0.3751 N   0  0  0  0  0  0  0  0  0  0  0  0
   -1.2868   -4.7440   -0.4647 C   0  0  0  0  0  0  0  0  0  0  0  0
   -2.3027   -5.6987   -0.5259 C   0  0  0  0  0  0  0  0  0  0  0  0
   -1.9896   -7.0593   -0.6070 C   0  0  0  0  0  0  0  0  0  0  0  0
   -0.6596   -7.4736   -0.6190 C   0  0  0  0  0  0  0  0  0  0  0  0
    0.3599   -6.5287   -0.5427 C   0  0  0  0  0  0  0  0  0  0  0  0
    0.0473   -5.1702   -0.4619 C   0  0  0  0  0  0  0  0  0  0  0  0
    0.7903    1.5189    2.5945 H   0  0  0  0  0  0  0  0  0  0  0  0
    1.6888    2.0023    1.1665 H   0  0  0  0  0  0  0  0  0  0  0  0
   -0.2136    1.8337   -0.2727 H   0  0  0  0  0  0  0  0  0  0  0  0
   -0.7505    2.6497    1.1824 H   0  0  0  0  0  0  0  0  0  0  0  0
   -2.4386    1.1344    0.9286 H   0  0  0  0  0  0  0  0  0  0  0  0
   -1.4419    0.2517    2.0366 H   0  0  0  0  0  0  0  0  0  0  0  0
    1.3451    0.1376   -0.8506 H   0  0  0  0  0  0  0  0  0  0  0  0
    1.7527   -1.4576   -0.2695 H   0  0  0  0  0  0  0  0  0  0  0  0
    2.4026   -0.1837    1.5403 H   0  0  0  0  0  0  0  0  0  0  0  0
    0.8268   -0.7704    2.0423 H   0  0  0  0  0  0  0  0  0  0  0  0
   -4.9872   -1.8770    0.9108 H   0  0  0  0  0  0  0  0  0  0  0  0
   -7.0652   -0.5715    0.7390 H   0  0  0  0  0  0  0  0  0  0  0  0
   -7.1136    1.5432   -0.5596 H   0  0  0  0  0  0  0  0  0  0  0  0
   -5.0693    2.3241   -1.7320 H   0  0  0  0  0  0  0  0  0  0  0  0
   -2.9856    1.0142   -1.6024 H   0  0  0  0  0  0  0  0  0  0  0  0
   -0.6872   -2.7633   -0.3491 H   0  0  0  0  0  0  0  0  0  0  0  0
   -3.3507   -5.4160   -0.5119 H   0  0  0  0  0  0  0  0  0  0  0  0
   -2.7889   -7.7935   -0.6646 H   0  0  0  0  0  0  0  0  0  0  0  0
   -0.4195   -8.5313   -0.6842 H   0  0  0  0  0  0  0  0  0  0  0  0
    1.3986   -6.8468   -0.5507 H   0  0  0  0  0  0  0  0  0  0  0  0
    0.8577   -4.4477   -0.4043 H   0  0  0  0  0  0  0  0  0  0  0  0
  1  2  1  0  0  0  0
  1  7  1  0  0  0  0
  1 24  1  0  0  0  0
  1 25  1  0  0  0  0
  2  3  1  0  0  0  0
  2 26  1  0  0  0  0
  2 27  1  0  0  0  0
  3  4  1  0  0  0  0
  3 28  1  0  0  0  0
  3 29  1  0  0  0  0
  4  5  2  0  0  0  0
  4  8  1  0  0  0  0
  5  6  1  0  0  0  0
  6  7  1  0  0  0  0
  6 30  1  0  0  0  0
  6 31  1  0  0  0  0
  7 32  1  0  0  0  0
  7 33  1  0  0  0  0
  8  9  1  0  0  0  0
  8 15  1  0  0  0  0
  9 10  2  0  0  0  0
  9 14  1  0  0  0  0
 10 11  1  0  0  0  0
 10 34  1  0  0  0  0
 11 12  2  0  0  0  0
 11 35  1  0  0  0  0
 12 13  1  0  0  0  0
 12 36  1  0  0  0  0
 13 14  2  0  0  0  0
 13 37  1  0  0  0  0
 14 38  1  0  0  0  0
 15 16  2  0  0  0  0
 15 17  1  0  0  0  0
 17 18  1  0  0  0  0
 17 39  1  0  0  0  0
 18 19  2  0  0  0  0
 18 23  1  0  0  0  0
 19 20  1  0  0  0  0
 19 40  1  0  0  0  0
 20 21  2  0  0  0  0
 20 41  1  0  0  0  0
 21 22  1  0  0  0  0
 21 42  1  0  0  0  0
 22 23  2  0  0  0  0
 22 43  1  0  0  0  0
 23 44  1  0  0  0  0
M  END
