
 OpenBabel10072619423D

 57 58  0  0  1  0  0  0  0  0999 V2000
    2.9875    1.1267    0.7290 C   0  0  0  0  0  0  0  0  0  0  0  0
    1.7874    0.2280    0.7074 C   0  0  0  0  0  0  0  0  0  0  0  0
    0.4986    0.7665    0.6742 C   0  0  0  0  0  0  0  0  0  0  0  0
   -0.6340   -0.0613    0.6064 C   0  0  0  0  0  0  0  0  0  0  0  0
   -0.4669   -1.4613    0.5451 C   0  0  0  0  0  0  0  0  0  0  0  0
    0.8261   -2.0180    0.6292 C   0  0  0  0  0  0  0  0  0  0  0  0
    1.9408   -1.1605    0.6736 C   0  0  0  0  0  0  0  0  0  0  0  0
    1.0925   -3.4959    0.7379 C   0  0  0  0  0  0  0  0  0  0  0  0
   -1.6320   -2.2699    0.5070 N   0  0  0  0  0  0  0  0  0  0  0  0
   -1.9797   -3.1949   -0.4820 C   0  0  0  0  0  0  0  0  0  0  0  0
   -1.1492   -3.4083   -1.9291 S   0  0  0  0  0  0  0  0  0  0  0  0
   -3.1383   -3.9279   -0.1338 N   0  0  0  0  0  0  0  0  0  0  0  0
   -4.4000   -3.2371    0.1967 C   0  0  0  0  0  0  0  0  0  0  0  0
   -5.2083   -2.8539   -1.0480 C   0  0  0  0  0  0  0  0  0  0  0  0
   -6.6393   -2.3855   -0.7201 C   0  0  0  0  0  0  0  0  0  0  0  0
   -6.6711   -1.1494    0.1792 C   0  0  0  0  0  0  0  0  0  0  0  0
   -7.4016   -2.1013   -2.0165 C   0  0  0  0  0  0  0  0  0  0  0  0
   -3.2075   -5.4123   -0.2476 C   0  0  3  0  0  0  0  0  0  0  0  0
   -3.3731   -5.9675   -1.6680 C   0  0  0  0  0  0  0  0  0  0  0  0
   -2.1219   -6.0698    0.5986 C   0  0  0  0  0  0  0  0  0  0  0  0
   -2.1788   -5.9487    1.9956 C   0  0  0  0  0  0  0  0  0  0  0  0
   -1.1864   -6.5307    2.7681 C   0  0  0  0  0  0  0  0  0  0  0  0
   -0.1487   -7.2220    2.2562 N   0  0  0  0  0  0  0  0  0  0  0  0
   -0.0988   -7.3227    0.9112 C   0  0  0  0  0  0  0  0  0  0  0  0
   -1.0447   -6.7754    0.0552 C   0  0  0  0  0  0  0  0  0  0  0  0
   -1.9935    0.5817    0.5447 C   0  0  0  0  0  0  0  0  0  0  0  0
    2.7389    2.1040    1.1559 H   0  0  0  0  0  0  0  0  0  0  0  0
    3.3630    1.2754   -0.2880 H   0  0  0  0  0  0  0  0  0  0  0  0
    3.7847    0.6983    1.3449 H   0  0  0  0  0  0  0  0  0  0  0  0
    0.3756    1.8473    0.6919 H   0  0  0  0  0  0  0  0  0  0  0  0
    2.9423   -1.5879    0.7117 H   0  0  0  0  0  0  0  0  0  0  0  0
    0.2183   -4.0426    1.0963 H   0  0  0  0  0  0  0  0  0  0  0  0
    1.8867   -3.6856    1.4687 H   0  0  0  0  0  0  0  0  0  0  0  0
    1.4098   -3.9036   -0.2258 H   0  0  0  0  0  0  0  0  0  0  0  0
   -2.4079   -1.8892    1.0197 H   0  0  0  0  0  0  0  0  0  0  0  0
   -4.1895   -2.3228    0.7532 H   0  0  0  0  0  0  0  0  0  0  0  0
   -4.9871   -3.8745    0.8677 H   0  0  0  0  0  0  0  0  0  0  0  0
   -5.2812   -3.7150   -1.7193 H   0  0  0  0  0  0  0  0  0  0  0  0
   -4.6717   -2.0751   -1.6061 H   0  0  0  0  0  0  0  0  0  0  0  0
   -7.1591   -3.1985   -0.1966 H   0  0  0  0  0  0  0  0  0  0  0  0
   -6.1292   -0.3125   -0.2726 H   0  0  0  0  0  0  0  0  0  0  0  0
   -6.2289   -1.3530    1.1588 H   0  0  0  0  0  0  0  0  0  0  0  0
   -7.7028   -0.8268    0.3555 H   0  0  0  0  0  0  0  0  0  0  0  0
   -6.9504   -1.2702   -2.5692 H   0  0  0  0  0  0  0  0  0  0  0  0
   -8.4441   -1.8420   -1.8038 H   0  0  0  0  0  0  0  0  0  0  0  0
   -7.4043   -2.9806   -2.6692 H   0  0  0  0  0  0  0  0  0  0  0  0
   -4.1394   -5.7085    0.2551 H   0  0  0  0  0  0  0  0  0  0  0  0
   -2.5023   -5.8127   -2.3060 H   0  0  0  0  0  0  0  0  0  0  0  0
   -4.2314   -5.5181   -2.1736 H   0  0  0  0  0  0  0  0  0  0  0  0
   -3.5458   -7.0494   -1.6327 H   0  0  0  0  0  0  0  0  0  0  0  0
   -2.9798   -5.3985    2.4788 H   0  0  0  0  0  0  0  0  0  0  0  0
   -1.1993   -6.4504    3.8517 H   0  0  0  0  0  0  0  0  0  0  0  0
    0.7546   -7.8698    0.5204 H   0  0  0  0  0  0  0  0  0  0  0  0
   -0.9152   -6.8952   -1.0143 H   0  0  0  0  0  0  0  0  0  0  0  0
   -1.9240    1.6745    0.5354 H   0  0  0  0  0  0  0  0  0  0  0  0
   -2.5888    0.2982    1.4185 H   0  0  0  0  0  0  0  0  0  0  0  0
   -2.5154    0.2784   -0.3691 H   0  0  0  0  0  0  0  0  0  0  0  0
  1  2  1  0  0  0  0
  1 27  1  0  0  0  0
  1 28  1  0  0  0  0
  1 29  1  0  0  0  0
  2  3  2  0  0  0  0
  2  7  1  0  0  0  0
  3  4  1  0  0  0  0
  3 30  1  0  0  0  0
  4  5  2  0  0  0  0
  4 26  1  0  0  0  0
  5  6  1  0  0  0  0
  5  9  1  0  0  0  0
  6  7  2  0  0  0  0
  6  8  1  0  0  0  0
  7 31  1  0  0  0  0
  8 32  1  0  0  0  0
  8 33  1  0  0  0  0
  8 34  1  0  0  0  0
  9 10  1  0  0  0  0
  9 35  1  0  0  0  0
 10 11  2  0  0  0  0
 10 12  1  0  0  0  0
 12 13  1  0  0  0  0
 12 18  1  0  0  0  0
 13 14  1  0  0  0  0
 13 36  1  0  0  0  0
 13 37  1  0  0  0  0
 14 15  1  0  0  0  0
 14 38  1  0  0  0  0
 14 39  1  0  0  0  0
 15 16  1  0  0  0  0
 15 17  1  0  0  0  0
 15 40  1  0  0  0  0
 16 41  1  0  0  0  0
 16 42  1  0  0  0  0
 16 43  1  0  0  0  0
 17 44  1  0  0  0  0
 17 45  1  0  0  0  0
 17 46  1  0  0  0  0
 18 19  1  0  0  0  0
 18 20  1  0  0  0  0
 18 47  1  0  0  0  0
 19 48  1  0  0  0  0
 19 49  1  0  0  0  0
 19 50  1  0  0  0  0
 20 21  2  0  0  0  0
 20 25  1  0  0  0  0
 21 22  1  0  0  0  0
 21 51  1  0  0  0  0
 22 23  2  0  0  0  0
 22 52  1  0  0  0  0
 23 24  1  0  0  0  0
 24 25  2  0  0  0  0
 24 53  1  0  0  0  0
 25 54  1  0  0  0  0
 26 55  1  0  0  0  0
 26 56  1  0  0  0  0
 26 57  1  0  0  0  0
M  END
