
 OpenBabel10072620163D

 47 50  0  0  0  0  0  0  0  0999 V2000
    1.0775   -0.0243    0.3883 C   0  0  0  0  0  0  0  0  0  0  0  0
    0.2263    0.5113    1.3506 C   0  0  0  0  0  0  0  0  0  0  0  0
   -1.1136    0.7537    1.0389 C   0  0  0  0  0  0  0  0  0  0  0  0
   -1.6185    0.4732   -0.2410 C   0  0  0  0  0  0  0  0  0  0  0  0
   -0.7496   -0.0691   -1.1971 C   0  0  0  0  0  0  0  0  0  0  0  0
    0.5907   -0.3149   -0.8843 C   0  0  0  0  0  0  0  0  0  0  0  0
   -3.0440    0.6990   -0.5271 C   0  0  0  0  0  0  0  0  0  0  0  0
   -3.5927    1.1988   -1.6506 C   0  0  0  0  0  0  0  0  0  0  0  0
   -5.0801    1.0975   -1.4235 C   0  0  0  0  0  0  0  0  0  0  0  0
   -5.9373    1.4020   -2.2401 O   0  0  0  0  0  0  0  0  0  0  0  0
   -5.2418    0.5728   -0.1337 N   0  0  0  0  0  0  0  0  0  0  0  0
   -3.9825    0.3581    0.4407 N   0  0  0  0  0  0  0  0  0  0  0  0
   -6.4176    0.3195    0.6061 C   0  0  0  0  0  0  0  0  0  0  0  0
   -7.6887    0.4803    0.0398 C   0  0  0  0  0  0  0  0  0  0  0  0
   -8.8441    0.2156    0.7842 C   0  0  0  0  0  0  0  0  0  0  0  0
   -8.7471   -0.2115    2.1048 C   0  0  0  0  0  0  0  0  0  0  0  0
   -7.4941   -0.3671    2.6877 C   0  0  0  0  0  0  0  0  0  0  0  0
   -6.3408   -0.1022    1.9439 C   0  0  0  0  0  0  0  0  0  0  0  0
   -2.9597    1.6309   -2.7802 N   0  0  0  0  0  0  0  0  0  0  0  0
   -3.6179    2.3786   -3.5300 N   0  0  0  0  0  0  0  0  0  0  0  0
   -2.8711    2.7978   -4.6474 C   0  0  0  0  0  0  0  0  0  0  0  0
   -2.0754    1.9255   -5.4079 C   0  0  0  0  0  0  0  0  0  0  0  0
   -1.3744    2.3844   -6.5270 C   0  0  0  0  0  0  0  0  0  0  0  0
   -1.4853    3.7247   -6.9045 C   0  0  0  0  0  0  0  0  0  0  0  0
   -2.2723    4.6086   -6.1629 C   0  0  0  0  0  0  0  0  0  0  0  0
   -2.9677    4.1375   -5.0459 C   0  0  0  0  0  0  0  0  0  0  0  0
   -0.5764    4.3212   -8.3000 S   0  0  0  0  0  0  0  0  0  0  0  0
   -0.3943    5.7491   -8.1730 O   0  0  0  0  0  0  0  0  0  0  0  0
    0.5204    3.4227   -8.5721 O   0  0  0  0  0  0  0  0  0  0  0  0
   -1.6752    4.1046   -9.5496 N   0  0  0  0  0  0  0  0  0  0  0  0
    2.1210   -0.2136    0.6279 H   0  0  0  0  0  0  0  0  0  0  0  0
    0.6019    0.7425    2.3442 H   0  0  0  0  0  0  0  0  0  0  0  0
   -1.7602    1.1777    1.8048 H   0  0  0  0  0  0  0  0  0  0  0  0
   -1.1043   -0.3171   -2.1947 H   0  0  0  0  0  0  0  0  0  0  0  0
    1.2526   -0.7360   -1.6367 H   0  0  0  0  0  0  0  0  0  0  0  0
   -3.8425   -0.6038    0.7562 H   0  0  0  0  0  0  0  0  0  0  0  0
   -7.8133    0.8084   -0.9883 H   0  0  0  0  0  0  0  0  0  0  0  0
   -9.8213    0.3443    0.3250 H   0  0  0  0  0  0  0  0  0  0  0  0
   -9.6456   -0.4156    2.6808 H   0  0  0  0  0  0  0  0  0  0  0  0
   -7.4098   -0.6887    3.7220 H   0  0  0  0  0  0  0  0  0  0  0  0
   -5.3811   -0.2162    2.4398 H   0  0  0  0  0  0  0  0  0  0  0  0
   -2.0026    0.8782   -5.1257 H   0  0  0  0  0  0  0  0  0  0  0  0
   -0.7534    1.6950   -7.0950 H   0  0  0  0  0  0  0  0  0  0  0  0
   -2.3529    5.6562   -6.4443 H   0  0  0  0  0  0  0  0  0  0  0  0
   -3.5915    4.8194   -4.4718 H   0  0  0  0  0  0  0  0  0  0  0  0
   -1.9217    5.0068   -9.9576 H   0  0  0  0  0  0  0  0  0  0  0  0
   -1.3080    3.4336  -10.2249 H   0  0  0  0  0  0  0  0  0  0  0  0
  1  2  2  0  0  0  0
  1  6  1  0  0  0  0
  1 31  1  0  0  0  0
  2  3  1  0  0  0  0
  2 32  1  0  0  0  0
  3  4  2  0  0  0  0
  3 33  1  0  0  0  0
  4  5  1  0  0  0  0
  4  7  1  0  0  0  0
  5  6  2  0  0  0  0
  5 34  1  0  0  0  0
  6 35  1  0  0  0  0
  7  8  2  0  0  0  0
  7 12  1  0  0  0  0
  8  9  1  0  0  0  0
  8 19  1  0  0  0  0
  9 10  2  0  0  0  0
  9 11  1  0  0  0  0
 11 12  1  0  0  0  0
 11 13  1  0  0  0  0
 12 36  1  0  0  0  0
 13 14  2  0  0  0  0
 13 18  1  0  0  0  0
 14 15  1  0  0  0  0
 14 37  1  0  0  0  0
 15 16  2  0  0  0  0
 15 38  1  0  0  0  0
 16 17  1  0  0  0  0
 16 39  1  0  0  0  0
 17 18  2  0  0  0  0
 17 40  1  0  0  0  0
 18 41  1  0  0  0  0
 19 20  2  3  0  0  0
 20 21  1  0  0  0  0
 21 22  2  0  0  0  0
 21 26  1  0  0  0  0
 22 23  1  0  0  0  0
 22 42  1  0  0  0  0
 23 24  2  0  0  0  0
 23 43  1  0  0  0  0
 24 25  1  0  0  0  0
 24 27  1  0  0  0  0
 25 26  2  0  0  0  0
 25 44  1  0  0  0  0
 26 45  1  0  0  0  0
 27 28  2  0  0  0  0
 27 29  2  0  0  0  0
 27 30  1  0  0  0  0
 30 46  1  0  0  0  0
 30 47  1  0  0  0  0
M  END
