
 OpenBabel10072619423D

 33 34  0  0  0  0  0  0  0  0999 V2000
    2.3223   -0.0924    0.7699 C   0  0  0  0  0  0  0  0  0  0  0  0
    0.8654   -0.0103    0.4147 C   0  0  0  0  0  0  0  0  0  0  0  0
   -0.0185   -1.0420    0.7603 C   0  0  0  0  0  0  0  0  0  0  0  0
   -1.3702   -0.9606    0.4170 C   0  0  0  0  0  0  0  0  0  0  0  0
   -1.8428    0.1642   -0.2638 C   0  0  0  0  0  0  0  0  0  0  0  0
   -0.9721    1.1957   -0.6235 C   0  0  0  0  0  0  0  0  0  0  0  0
    0.3783    1.1080   -0.2780 C   0  0  0  0  0  0  0  0  0  0  0  0
   -3.5476    0.2501   -0.7515 S   0  0  0  0  0  0  0  0  0  0  0  0
   -3.5926    0.9260   -2.0328 O   0  0  0  0  0  0  0  0  0  0  0  0
   -4.1471   -1.0556   -0.5820 O   0  0  0  0  0  0  0  0  0  0  0  0
   -4.2100    1.3358    0.3607 N   0  0  0  0  0  0  0  0  0  0  0  0
   -4.6359    0.8386    1.6254 C   0  0  0  0  0  0  0  0  0  0  0  0
   -3.6914    0.7376    2.6504 C   0  0  0  0  0  0  0  0  0  0  0  0
   -4.0598    0.2393    3.8988 C   0  0  0  0  0  0  0  0  0  0  0  0
   -5.3729   -0.1649    4.1229 C   0  0  0  0  0  0  0  0  0  0  0  0
   -6.3180   -0.0706    3.0995 C   0  0  0  0  0  0  0  0  0  0  0  0
   -5.9621    0.4261    1.8354 C   0  0  0  0  0  0  0  0  0  0  0  0
   -7.0068    0.5117    0.7580 C   0  0  0  0  0  0  0  0  0  0  0  0
    2.5642   -1.0396    1.2635 H   0  0  0  0  0  0  0  0  0  0  0  0
    2.5908    0.7210    1.4517 H   0  0  0  0  0  0  0  0  0  0  0  0
    2.9362   -0.0223   -0.1342 H   0  0  0  0  0  0  0  0  0  0  0  0
    0.3416   -1.9220    1.2900 H   0  0  0  0  0  0  0  0  0  0  0  0
   -2.0432   -1.7747    0.6788 H   0  0  0  0  0  0  0  0  0  0  0  0
   -1.3336    2.0589   -1.1774 H   0  0  0  0  0  0  0  0  0  0  0  0
    1.0542    1.9123   -0.5625 H   0  0  0  0  0  0  0  0  0  0  0  0
   -4.8117    2.0114   -0.1068 H   0  0  0  0  0  0  0  0  0  0  0  0
   -2.6669    1.0629    2.4906 H   0  0  0  0  0  0  0  0  0  0  0  0
   -3.3233    0.1680    4.6948 H   0  0  0  0  0  0  0  0  0  0  0  0
   -5.6634   -0.5552    5.0951 H   0  0  0  0  0  0  0  0  0  0  0  0
   -7.3386   -0.3930    3.2960 H   0  0  0  0  0  0  0  0  0  0  0  0
   -7.9597    0.0852    1.0899 H   0  0  0  0  0  0  0  0  0  0  0  0
   -6.6978   -0.0438   -0.1321 H   0  0  0  0  0  0  0  0  0  0  0  0
   -7.1863    1.5573    0.4891 H   0  0  0  0  0  0  0  0  0  0  0  0
  1  2  1  0  0  0  0
  1 19  1  0  0  0  0
  1 20  1  0  0  0  0
  1 21  1  0  0  0  0
  2  3  2  0  0  0  0
  2  7  1  0  0  0  0
  3  4  1  0  0  0  0
  3 22  1  0  0  0  0
  4  5  2  0  0  0  0
  4 23  1  0  0  0  0
  5  6  1  0  0  0  0
  5  8  1  0  0  0  0
  6  7  2  0  0  0  0
  6 24  1  0  0  0  0
  7 25  1  0  0  0  0
  8  9  2  0  0  0  0
  8 10  2  0  0  0  0
  8 11  1  0  0  0  0
 11 12  1  0  0  0  0
 11 26  1  0  0  0  0
 12 13  2  0  0  0  0
 12 17  1  0  0  0  0
 13 14  1  0  0  0  0
 13 27  1  0  0  0  0
 14 15  2  0  0  0  0
 14 28  1  0  0  0  0
 15 16  1  0  0  0  0
 15 29  1  0  0  0  0
 16 17  2  0  0  0  0
 16 30  1  0  0  0  0
 17 18  1  0  0  0  0
 18 31  1  0  0  0  0
 18 32  1  0  0  0  0
 18 33  1  0  0  0  0
M  END
