
 OpenBabel10072619573D

 36 37  0  0  0  0  0  0  0  0999 V2000
    0.3698    7.4829    5.1343 C   0  0  0  0  0  0  0  0  0  0  0  0
    1.1549    7.1898    3.8548 C   0  0  0  0  0  0  0  0  0  0  0  0
    1.7071    8.4816    3.2537 C   0  0  0  0  0  0  0  0  0  0  0  0
    2.2691    6.2201    4.1295 C   0  0  0  0  0  0  0  0  0  0  0  0
    3.1481    6.3318    5.1074 N   0  0  0  0  0  0  0  0  0  0  0  0
    4.0338    5.2744    5.1364 N   0  0  0  0  0  0  0  0  0  0  0  0
    3.7935    4.4195    4.1714 C   0  0  0  0  0  0  0  0  0  0  0  0
    2.4969    4.8227    3.1456 S   0  0  0  0  0  0  0  0  0  0  0  0
    4.4316    3.2515    3.8841 N   0  0  0  0  0  0  0  0  0  0  0  0
    5.4456    2.6840    4.6008 C   0  0  0  0  0  0  0  0  0  0  0  0
    5.8752    1.6039    4.1980 O   0  0  0  0  0  0  0  0  0  0  0  0
    5.8829    3.3616    5.7069 N   0  0  0  0  0  0  0  0  0  0  0  0
    6.8539    2.9642    6.6456 C   0  0  0  0  0  0  0  0  0  0  0  0
    7.5164    1.7371    6.6185 C   0  0  0  0  0  0  0  0  0  0  0  0
    8.4594    1.4107    7.6046 C   0  0  0  0  0  0  0  0  0  0  0  0
    8.7482    2.3100    8.6295 C   0  0  0  0  0  0  0  0  0  0  0  0
    8.0889    3.5389    8.6572 C   0  0  0  0  0  0  0  0  0  0  0  0
    7.1476    3.8631    7.6757 C   0  0  0  0  0  0  0  0  0  0  0  0
    9.6359    2.1121    9.6503 O   0  0  0  0  0  0  0  0  0  0  0  0
   10.3079    0.8590    9.6812 C   0  0  0  0  0  0  0  0  0  0  0  0
   -0.4676    8.1579    4.9283 H   0  0  0  0  0  0  0  0  0  0  0  0
    1.0007    7.9516    5.8982 H   0  0  0  0  0  0  0  0  0  0  0  0
   -0.0380    6.5604    5.5629 H   0  0  0  0  0  0  0  0  0  0  0  0
    0.4537    6.7525    3.1324 H   0  0  0  0  0  0  0  0  0  0  0  0
    2.3943    8.9848    3.9433 H   0  0  0  0  0  0  0  0  0  0  0  0
    0.8951    9.1777    3.0177 H   0  0  0  0  0  0  0  0  0  0  0  0
    2.2562    8.2797    2.3272 H   0  0  0  0  0  0  0  0  0  0  0  0
    4.1169    2.7157    3.0900 H   0  0  0  0  0  0  0  0  0  0  0  0
    5.4562    4.2689    5.8708 H   0  0  0  0  0  0  0  0  0  0  0  0
    7.3174    1.0018    5.8454 H   0  0  0  0  0  0  0  0  0  0  0  0
    8.9439    0.4419    7.5384 H   0  0  0  0  0  0  0  0  0  0  0  0
    8.3069    4.2506    9.4497 H   0  0  0  0  0  0  0  0  0  0  0  0
    6.6477    4.8265    7.7337 H   0  0  0  0  0  0  0  0  0  0  0  0
   10.9653    0.8543   10.5562 H   0  0  0  0  0  0  0  0  0  0  0  0
   10.9343    0.7248    8.7928 H   0  0  0  0  0  0  0  0  0  0  0  0
    9.5982    0.0326    9.7946 H   0  0  0  0  0  0  0  0  0  0  0  0
  1  2  1  0  0  0  0
  1 21  1  0  0  0  0
  1 22  1  0  0  0  0
  1 23  1  0  0  0  0
  2  3  1  0  0  0  0
  2  4  1  0  0  0  0
  2 24  1  0  0  0  0
  3 25  1  0  0  0  0
  3 26  1  0  0  0  0
  3 27  1  0  0  0  0
  4  5  2  0  0  0  0
  4  8  1  0  0  0  0
  5  6  1  0  0  0  0
  6  7  2  0  0  0  0
  7  8  1  0  0  0  0
  7  9  1  0  0  0  0
  9 10  1  0  0  0  0
  9 28  1  0  0  0  0
 10 11  2  0  0  0  0
 10 12  1  0  0  0  0
 12 13  1  0  0  0  0
 12 29  1  0  0  0  0
 13 14  2  0  0  0  0
 13 18  1  0  0  0  0
 14 15  1  0  0  0  0
 14 30  1  0  0  0  0
 15 16  2  0  0  0  0
 15 31  1  0  0  0  0
 16 17  1  0  0  0  0
 16 19  1  0  0  0  0
 17 18  2  0  0  0  0
 17 32  1  0  0  0  0
 18 33  1  0  0  0  0
 19 20  1  0  0  0  0
 20 34  1  0  0  0  0
 20 35  1  0  0  0  0
 20 36  1  0  0  0  0
M  END
