
 OpenBabel10072619573D

 38 40  0  0  0  0  0  0  0  0999 V2000
    2.9573    0.0334    1.7856 C   0  0  0  0  0  0  0  0  0  0  0  0
    1.9121    0.4259    0.9808 C   0  0  0  0  0  0  0  0  0  0  0  0
    1.0004   -0.9069    0.4229 S   0  0  0  0  0  0  0  0  0  0  0  0
    1.9949   -2.0303    1.2538 C   0  0  0  0  0  0  0  0  0  0  0  0
    3.0013   -1.3819    1.9475 C   0  0  0  0  0  0  0  0  0  0  0  0
    1.7612   -3.4677    1.1932 C   0  0  0  0  0  0  0  0  0  0  0  0
    2.4218   -4.2756    1.8470 O   0  0  0  0  0  0  0  0  0  0  0  0
    0.7317   -3.8747    0.3612 N   0  0  0  0  0  0  0  0  0  0  0  0
    0.3944   -5.1457   -0.0497 C   0  0  0  0  0  0  0  0  0  0  0  0
   -0.4497   -5.2480   -0.9358 O   0  0  0  0  0  0  0  0  0  0  0  0
    1.0589   -6.1571    0.5674 N   0  0  0  0  0  0  0  0  0  0  0  0
    0.9515   -7.5073    0.2921 C   0  0  0  0  0  0  0  0  0  0  0  0
    1.7317   -8.2894    1.0472 N   0  0  0  0  0  0  0  0  0  0  0  0
    1.7090   -9.6205    0.8229 C   0  0  0  0  0  0  0  0  0  0  0  0
    0.9187  -10.1678   -0.1696 C   0  0  0  0  0  0  0  0  0  0  0  0
    0.1385   -9.2961   -0.9082 C   0  0  0  0  0  0  0  0  0  0  0  0
    0.1518   -7.9624   -0.6723 N   0  0  0  0  0  0  0  0  0  0  0  0
   -0.7366   -9.8307   -2.0303 C   0  0  0  0  0  0  0  0  0  0  0  0
   -0.7253  -11.1973   -2.1060 F   0  0  0  0  0  0  0  0  0  0  0  0
   -2.0501   -9.4923   -1.9054 F   0  0  0  0  0  0  0  0  0  0  0  0
   -0.3435   -9.4022   -3.2624 F   0  0  0  0  0  0  0  0  0  0  0  0
    2.5974  -10.4319    1.6850 C   0  0  0  0  0  0  0  0  0  0  0  0
    2.3025  -11.7714    2.0120 C   0  0  0  0  0  0  0  0  0  0  0  0
    3.1626  -12.5316    2.8122 C   0  0  0  0  0  0  0  0  0  0  0  0
    4.3269  -11.9600    3.3049 C   0  0  0  0  0  0  0  0  0  0  0  0
    4.6414  -10.6390    3.0236 C   0  0  0  0  0  0  0  0  0  0  0  0
    3.7814   -9.8817    2.2208 C   0  0  0  0  0  0  0  0  0  0  0  0
    5.1512  -12.6912    4.0660 F   0  0  0  0  0  0  0  0  0  0  0  0
    3.6580    0.7257    2.2373 H   0  0  0  0  0  0  0  0  0  0  0  0
    1.6410    1.4327    0.6912 H   0  0  0  0  0  0  0  0  0  0  0  0
    3.7416   -1.9073    2.5411 H   0  0  0  0  0  0  0  0  0  0  0  0
    0.2338   -3.1571   -0.1469 H   0  0  0  0  0  0  0  0  0  0  0  0
    1.7251   -5.9325    1.2966 H   0  0  0  0  0  0  0  0  0  0  0  0
    0.9199  -11.2307   -0.3831 H   0  0  0  0  0  0  0  0  0  0  0  0
    1.3853  -12.2420    1.6643 H   0  0  0  0  0  0  0  0  0  0  0  0
    2.9255  -13.5622    3.0572 H   0  0  0  0  0  0  0  0  0  0  0  0
    5.5495  -10.2035    3.4286 H   0  0  0  0  0  0  0  0  0  0  0  0
    4.0446   -8.8451    2.0112 H   0  0  0  0  0  0  0  0  0  0  0  0
  1  2  2  0  0  0  0
  1  5  1  0  0  0  0
  1 29  1  0  0  0  0
  2  3  1  0  0  0  0
  2 30  1  0  0  0  0
  3  4  1  0  0  0  0
  4  5  2  0  0  0  0
  4  6  1  0  0  0  0
  5 31  1  0  0  0  0
  6  7  2  0  0  0  0
  6  8  1  0  0  0  0
  8  9  1  0  0  0  0
  8 32  1  0  0  0  0
  9 10  2  0  0  0  0
  9 11  1  0  0  0  0
 11 12  1  0  0  0  0
 11 33  1  0  0  0  0
 12 13  2  0  0  0  0
 12 17  1  0  0  0  0
 13 14  1  0  0  0  0
 14 15  2  0  0  0  0
 14 22  1  0  0  0  0
 15 16  1  0  0  0  0
 15 34  1  0  0  0  0
 16 17  2  0  0  0  0
 16 18  1  0  0  0  0
 18 19  1  0  0  0  0
 18 20  1  0  0  0  0
 18 21  1  0  0  0  0
 22 23  2  0  0  0  0
 22 27  1  0  0  0  0
 23 24  1  0  0  0  0
 23 35  1  0  0  0  0
 24 25  2  0  0  0  0
 24 36  1  0  0  0  0
 25 26  1  0  0  0  0
 25 28  1  0  0  0  0
 26 27  2  0  0  0  0
 26 37  1  0  0  0  0
 27 38  1  0  0  0  0
M  END
