
 OpenBabel10072620213D

 60 63  0  0  0  0  0  0  0  0999 V2000
   -3.9796   -3.7974    3.6010 C   0  0  0  0  0  0  0  0  0  0  0  0
   -3.9165   -2.8365    2.4518 C   0  0  0  0  0  0  0  0  0  0  0  0
   -5.0290   -2.6280    1.6276 C   0  0  0  0  0  0  0  0  0  0  0  0
   -4.9480   -1.7530    0.5443 C   0  0  0  0  0  0  0  0  0  0  0  0
   -3.7548   -1.0660    0.2992 C   0  0  0  0  0  0  0  0  0  0  0  0
   -2.6319   -1.2801    1.1027 C   0  0  0  0  0  0  0  0  0  0  0  0
   -2.7204   -2.1573    2.1832 C   0  0  0  0  0  0  0  0  0  0  0  0
   -3.6274   -0.0080   -1.1309 S   0  0  0  0  0  0  0  0  0  0  0  0
   -2.2207    0.0702   -1.4722 O   0  0  0  0  0  0  0  0  0  0  0  0
   -4.5984   -0.4883   -2.0882 O   0  0  0  0  0  0  0  0  0  0  0  0
   -4.1153    1.5360   -0.5356 N   0  0  0  0  0  0  0  0  0  0  0  0
   -3.1463    2.1667    0.4027 C   0  0  0  0  0  0  0  0  0  0  0  0
   -3.1474    3.6751    0.3102 C   0  0  0  0  0  0  0  0  0  0  0  0
   -3.8447    4.4552    1.2418 C   0  0  0  0  0  0  0  0  0  0  0  0
   -3.8516    5.8460    1.1323 C   0  0  0  0  0  0  0  0  0  0  0  0
   -3.1676    6.4673    0.0886 C   0  0  0  0  0  0  0  0  0  0  0  0
   -2.4752    5.7010   -0.8464 C   0  0  0  0  0  0  0  0  0  0  0  0
   -2.4653    4.3112   -0.7383 C   0  0  0  0  0  0  0  0  0  0  0  0
   -5.5366    1.6784   -0.2610 C   0  0  0  0  0  0  0  0  0  0  0  0
   -6.0192    1.4359    1.0376 C   0  0  0  0  0  0  0  0  0  0  0  0
   -7.3853    1.4787    1.3202 C   0  0  0  0  0  0  0  0  0  0  0  0
   -8.2944    1.7502    0.3054 C   0  0  0  0  0  0  0  0  0  0  0  0
   -7.8395    1.9675   -0.9959 C   0  0  0  0  0  0  0  0  0  0  0  0
   -6.4647    1.9345   -1.2925 C   0  0  0  0  0  0  0  0  0  0  0  0
   -6.0843    2.1545   -2.7214 C   0  0  0  0  0  0  0  0  0  0  0  0
   -6.8288    1.7221   -3.5974 O   0  0  0  0  0  0  0  0  0  0  0  0
   -4.9114    2.8758   -2.9240 N   0  0  0  0  0  0  0  0  0  0  0  0
   -4.1270    2.6901   -4.0321 N   0  0  0  0  0  0  0  0  0  0  0  0
   -4.5763    2.9703   -5.2126 C   0  0  0  0  0  0  0  0  0  0  0  0
   -5.8724    3.6294   -5.6080 C   0  0  0  0  0  0  0  0  0  0  0  0
   -5.5535    4.0849   -7.0301 C   0  0  0  0  0  0  0  0  0  0  0  0
   -4.6346    2.9952   -7.5688 C   0  0  0  0  0  0  0  0  0  0  0  0
   -3.6948    2.6987   -6.4099 C   0  0  0  0  0  0  0  0  0  0  0  0
   -4.9565   -4.2868    3.6635 H   0  0  0  0  0  0  0  0  0  0  0  0
   -3.8059   -3.2653    4.5407 H   0  0  0  0  0  0  0  0  0  0  0  0
   -3.2193   -4.5756    3.4790 H   0  0  0  0  0  0  0  0  0  0  0  0
   -5.9598   -3.1609    1.8118 H   0  0  0  0  0  0  0  0  0  0  0  0
   -5.8115   -1.6219   -0.1062 H   0  0  0  0  0  0  0  0  0  0  0  0
   -1.6839   -0.7933    0.8843 H   0  0  0  0  0  0  0  0  0  0  0  0
   -1.8448   -2.3307    2.8061 H   0  0  0  0  0  0  0  0  0  0  0  0
   -2.1226    1.8455    0.1827 H   0  0  0  0  0  0  0  0  0  0  0  0
   -3.3267    1.8514    1.4357 H   0  0  0  0  0  0  0  0  0  0  0  0
   -4.3916    3.9876    2.0568 H   0  0  0  0  0  0  0  0  0  0  0  0
   -4.3945    6.4462    1.8580 H   0  0  0  0  0  0  0  0  0  0  0  0
   -3.1818    7.5502   -0.0019 H   0  0  0  0  0  0  0  0  0  0  0  0
   -1.9475    6.1840   -1.6653 H   0  0  0  0  0  0  0  0  0  0  0  0
   -1.9310    3.7241   -1.4849 H   0  0  0  0  0  0  0  0  0  0  0  0
   -5.3472    1.1822    1.8520 H   0  0  0  0  0  0  0  0  0  0  0  0
   -7.7392    1.2826    2.3304 H   0  0  0  0  0  0  0  0  0  0  0  0
   -9.3598    1.7797    0.5214 H   0  0  0  0  0  0  0  0  0  0  0  0
   -8.5625    2.1595   -1.7876 H   0  0  0  0  0  0  0  0  0  0  0  0
   -4.3449    2.9671   -2.0848 H   0  0  0  0  0  0  0  0  0  0  0  0
   -6.1372    4.4614   -4.9539 H   0  0  0  0  0  0  0  0  0  0  0  0
   -6.6745    2.8899   -5.6372 H   0  0  0  0  0  0  0  0  0  0  0  0
   -5.0265    5.0467   -7.0104 H   0  0  0  0  0  0  0  0  0  0  0  0
   -6.4560    4.2011   -7.6378 H   0  0  0  0  0  0  0  0  0  0  0  0
   -4.0958    3.3068   -8.4686 H   0  0  0  0  0  0  0  0  0  0  0  0
   -5.2227    2.1021   -7.8148 H   0  0  0  0  0  0  0  0  0  0  0  0
   -2.8494    3.3949   -6.3928 H   0  0  0  0  0  0  0  0  0  0  0  0
   -3.3306    1.6689   -6.4161 H   0  0  0  0  0  0  0  0  0  0  0  0
  1  2  1  0  0  0  0
  1 34  1  0  0  0  0
  1 35  1  0  0  0  0
  1 36  1  0  0  0  0
  2  3  2  0  0  0  0
  2  7  1  0  0  0  0
  3  4  1  0  0  0  0
  3 37  1  0  0  0  0
  4  5  2  0  0  0  0
  4 38  1  0  0  0  0
  5  6  1  0  0  0  0
  5  8  1  0  0  0  0
  6  7  2  0  0  0  0
  6 39  1  0  0  0  0
  7 40  1  0  0  0  0
  8  9  2  0  0  0  0
  8 10  2  0  0  0  0
  8 11  1  0  0  0  0
 11 12  1  0  0  0  0
 11 19  1  0  0  0  0
 12 13  1  0  0  0  0
 12 41  1  0  0  0  0
 12 42  1  0  0  0  0
 13 14  2  0  0  0  0
 13 18  1  0  0  0  0
 14 15  1  0  0  0  0
 14 43  1  0  0  0  0
 15 16  2  0  0  0  0
 15 44  1  0  0  0  0
 16 17  1  0  0  0  0
 16 45  1  0  0  0  0
 17 18  2  0  0  0  0
 17 46  1  0  0  0  0
 18 47  1  0  0  0  0
 19 20  2  0  0  0  0
 19 24  1  0  0  0  0
 20 21  1  0  0  0  0
 20 48  1  0  0  0  0
 21 22  2  0  0  0  0
 21 49  1  0  0  0  0
 22 23  1  0  0  0  0
 22 50  1  0  0  0  0
 23 24  2  0  0  0  0
 23 51  1  0  0  0  0
 24 25  1  0  0  0  0
 25 26  2  0  0  0  0
 25 27  1  0  0  0  0
 27 28  1  0  0  0  0
 27 52  1  0  0  0  0
 28 29  2  0  0  0  0
 29 30  1  0  0  0  0
 29 33  1  0  0  0  0
 30 31  1  0  0  0  0
 30 53  1  0  0  0  0
 30 54  1  0  0  0  0
 31 32  1  0  0  0  0
 31 55  1  0  0  0  0
 31 56  1  0  0  0  0
 32 33  1  0  0  0  0
 32 57  1  0  0  0  0
 32 58  1  0  0  0  0
 33 59  1  0  0  0  0
 33 60  1  0  0  0  0
M  END
