
 OpenBabel10072616413D

 48 52  0  0  0  0  0  0  0  0999 V2000
   -5.8411    0.3786    0.5744 C   0  0  0  0  0  0  0  0  0  0  0  0
   -4.4474    0.4652    0.0624 C   0  0  0  0  0  0  0  0  0  0  0  0
   -3.5352   -0.5147   -0.2926 C   0  0  0  0  0  0  0  0  0  0  0  0
   -2.3374    0.1419   -0.7282 C   0  0  0  0  0  0  0  0  0  0  0  0
   -1.0902   -0.2769   -1.2440 C   0  0  0  0  0  0  0  0  0  0  0  0
   -0.1109    0.6732   -1.5621 C   0  0  0  0  0  0  0  0  0  0  0  0
   -0.3554    2.0312   -1.3846 C   0  0  0  0  0  0  0  0  0  0  0  0
   -1.5849    2.4783   -0.8974 C   0  0  0  0  0  0  0  0  0  0  0  0
   -2.5526    1.5147   -0.5851 C   0  0  0  0  0  0  0  0  0  0  0  0
   -3.8316    1.6795   -0.1105 N   0  0  0  0  0  0  0  0  0  0  0  0
   -3.8320   -1.9130   -0.2180 C   0  0  0  0  0  0  0  0  0  0  0  0
   -2.9497   -2.8909    0.0331 C   0  0  0  0  0  0  0  0  0  0  0  0
   -3.4123   -4.3087    0.1123 C   0  0  0  0  0  0  0  0  0  0  0  0
   -4.3445   -4.7169   -0.6962 N   0  0  0  0  0  0  0  0  0  0  0  0
   -4.7292   -6.0582   -0.6625 C   0  0  0  0  0  0  0  0  0  0  0  0
   -4.0895   -6.9986    0.1396 C   0  0  0  0  0  0  0  0  0  0  0  0
   -4.4919   -8.3405    0.1481 C   0  0  0  0  0  0  0  0  0  0  0  0
   -5.5570   -8.7360   -0.6582 C   0  0  0  0  0  0  0  0  0  0  0  0
   -6.2076   -7.8078   -1.4710 C   0  0  0  0  0  0  0  0  0  0  0  0
   -5.7898   -6.4737   -1.4712 C   0  0  0  0  0  0  0  0  0  0  0  0
   -6.1938  -10.7138   -0.6364 I   0  0  0  0  0  0  0  0  0  0  0  0
   -3.0010   -6.5282    1.0126 C   0  0  0  0  0  0  0  0  0  0  0  0
   -2.4026   -7.3528    1.7025 O   0  0  0  0  0  0  0  0  0  0  0  0
   -2.7527   -5.1523    1.0039 N   0  0  0  0  0  0  0  0  0  0  0  0
   -1.8402   -4.6577    1.9875 C   0  0  0  0  0  0  0  0  0  0  0  0
   -2.2521   -3.8026    3.0281 C   0  0  0  0  0  0  0  0  0  0  0  0
   -1.3266   -3.3304    3.9625 C   0  0  0  0  0  0  0  0  0  0  0  0
    0.0074   -3.7203    3.8707 C   0  0  0  0  0  0  0  0  0  0  0  0
    0.4249   -4.5891    2.8647 C   0  0  0  0  0  0  0  0  0  0  0  0
   -0.4976   -5.0640    1.9300 C   0  0  0  0  0  0  0  0  0  0  0  0
    1.1461   -3.1433    5.0237 Cl  0  0  0  0  0  0  0  0  0  0  0  0
   -3.9128   -3.3778    3.2678 Cl  0  0  0  0  0  0  0  0  0  0  0  0
   -6.4527   -0.2447   -0.0855 H   0  0  0  0  0  0  0  0  0  0  0  0
   -6.3114    1.3661    0.6296 H   0  0  0  0  0  0  0  0  0  0  0  0
   -5.8509   -0.0596    1.5780 H   0  0  0  0  0  0  0  0  0  0  0  0
   -0.8807   -1.3283   -1.4104 H   0  0  0  0  0  0  0  0  0  0  0  0
    0.8486    0.3451   -1.9539 H   0  0  0  0  0  0  0  0  0  0  0  0
    0.4158    2.7558   -1.6357 H   0  0  0  0  0  0  0  0  0  0  0  0
   -1.7806    3.5382   -0.7713 H   0  0  0  0  0  0  0  0  0  0  0  0
   -4.2566    2.5776    0.0747 H   0  0  0  0  0  0  0  0  0  0  0  0
   -4.8798   -2.1877   -0.3364 H   0  0  0  0  0  0  0  0  0  0  0  0
   -1.8987   -2.6872    0.1874 H   0  0  0  0  0  0  0  0  0  0  0  0
   -3.9809   -9.0552    0.7895 H   0  0  0  0  0  0  0  0  0  0  0  0
   -7.0410   -8.1023   -2.1044 H   0  0  0  0  0  0  0  0  0  0  0  0
   -6.2961   -5.7480   -2.1036 H   0  0  0  0  0  0  0  0  0  0  0  0
   -1.6480   -2.6781    4.7703 H   0  0  0  0  0  0  0  0  0  0  0  0
    1.4626   -4.9092    2.8071 H   0  0  0  0  0  0  0  0  0  0  0  0
   -0.1627   -5.7516    1.1556 H   0  0  0  0  0  0  0  0  0  0  0  0
  1  2  1  0  0  0  0
  1 33  1  0  0  0  0
  1 34  1  0  0  0  0
  1 35  1  0  0  0  0
  2  3  2  0  0  0  0
  2 10  1  0  0  0  0
  3  4  1  0  0  0  0
  3 11  1  0  0  0  0
  4  5  2  0  0  0  0
  4  9  1  0  0  0  0
  5  6  1  0  0  0  0
  5 36  1  0  0  0  0
  6  7  2  0  0  0  0
  6 37  1  0  0  0  0
  7  8  1  0  0  0  0
  7 38  1  0  0  0  0
  8  9  2  0  0  0  0
  8 39  1  0  0  0  0
  9 10  1  0  0  0  0
 10 40  1  0  0  0  0
 11 12  2  0  0  0  0
 11 41  1  0  0  0  0
 12 13  1  0  0  0  0
 12 42  1  0  0  0  0
 13 14  2  0  0  0  0
 13 24  1  0  0  0  0
 14 15  1  0  0  0  0
 15 16  2  0  0  0  0
 15 20  1  0  0  0  0
 16 17  1  0  0  0  0
 16 22  1  0  0  0  0
 17 18  2  0  0  0  0
 17 43  1  0  0  0  0
 18 19  1  0  0  0  0
 18 21  1  0  0  0  0
 19 20  2  0  0  0  0
 19 44  1  0  0  0  0
 20 45  1  0  0  0  0
 22 23  2  0  0  0  0
 22 24  1  0  0  0  0
 24 25  1  0  0  0  0
 25 26  2  0  0  0  0
 25 30  1  0  0  0  0
 26 27  1  0  0  0  0
 26 32  1  0  0  0  0
 27 28  2  0  0  0  0
 27 46  1  0  0  0  0
 28 29  1  0  0  0  0
 28 31  1  0  0  0  0
 29 30  2  0  0  0  0
 29 47  1  0  0  0  0
 30 48  1  0  0  0  0
M  END
