
 OpenBabel10072620013D

 31 33  0  0  0  0  0  0  0  0999 V2000
   -2.1486   -0.7302    0.6937 C   0  0  0  0  0  0  0  0  0  0  0  0
   -1.1642   -1.6915    0.2560 O   0  0  0  0  0  0  0  0  0  0  0  0
   -0.0767   -0.8913    0.0994 C   0  0  0  0  0  0  0  0  0  0  0  0
   -0.3364    0.4169    0.4250 C   0  0  0  0  0  0  0  0  0  0  0  0
   -1.6250    0.6066    0.8184 O   0  0  0  0  0  0  0  0  0  0  0  0
    0.6257    1.4018    0.3330 C   0  0  0  0  0  0  0  0  0  0  0  0
    1.8985    1.0384   -0.1156 C   0  0  0  0  0  0  0  0  0  0  0  0
    2.1594   -0.3092   -0.4497 C   0  0  0  0  0  0  0  0  0  0  0  0
    1.1660   -1.2892   -0.3374 C   0  0  0  0  0  0  0  0  0  0  0  0
    2.9531    1.9579   -0.2880 N   0  0  0  0  0  0  0  0  0  0  0  0
    2.9973    3.2712    0.1506 C   0  0  0  0  0  0  0  0  0  0  0  0
    2.1517    3.8051    0.8537 O   0  0  0  0  0  0  0  0  0  0  0  0
    4.1451    3.8939   -0.3090 N   0  0  0  0  0  0  0  0  0  0  0  0
    4.5982    5.1917    0.0134 C   0  0  0  0  0  0  0  0  0  0  0  0
    5.6690    5.6986   -0.7385 C   0  0  0  0  0  0  0  0  0  0  0  0
    6.1949    6.9624   -0.5036 C   0  0  0  0  0  0  0  0  0  0  0  0
    5.6447    7.7307    0.5116 C   0  0  0  0  0  0  0  0  0  0  0  0
    4.5871    7.2550    1.2816 C   0  0  0  0  0  0  0  0  0  0  0  0
    4.0620    5.9829    1.0331 C   0  0  0  0  0  0  0  0  0  0  0  0
    6.1411    8.9491    0.7583 F   0  0  0  0  0  0  0  0  0  0  0  0
    6.1940    4.9488   -1.7222 F   0  0  0  0  0  0  0  0  0  0  0  0
   -2.5438   -1.0468    1.6658 H   0  0  0  0  0  0  0  0  0  0  0  0
   -2.9720   -0.7164   -0.0297 H   0  0  0  0  0  0  0  0  0  0  0  0
    0.3600    2.4193    0.5902 H   0  0  0  0  0  0  0  0  0  0  0  0
    3.1447   -0.6125   -0.7948 H   0  0  0  0  0  0  0  0  0  0  0  0
    1.3643   -2.3245   -0.5874 H   0  0  0  0  0  0  0  0  0  0  0  0
    3.8147    1.5871   -0.6557 H   0  0  0  0  0  0  0  0  0  0  0  0
    4.6277    3.4532   -1.0812 H   0  0  0  0  0  0  0  0  0  0  0  0
    7.0131    7.3430   -1.1033 H   0  0  0  0  0  0  0  0  0  0  0  0
    4.1678    7.8764    2.0684 H   0  0  0  0  0  0  0  0  0  0  0  0
    3.2411    5.6367    1.6543 H   0  0  0  0  0  0  0  0  0  0  0  0
  1  2  1  0  0  0  0
  1  5  1  0  0  0  0
  1 22  1  0  0  0  0
  1 23  1  0  0  0  0
  2  3  1  0  0  0  0
  3  4  2  0  0  0  0
  3  9  1  0  0  0  0
  4  5  1  0  0  0  0
  4  6  1  0  0  0  0
  6  7  2  0  0  0  0
  6 24  1  0  0  0  0
  7  8  1  0  0  0  0
  7 10  1  0  0  0  0
  8  9  2  0  0  0  0
  8 25  1  0  0  0  0
  9 26  1  0  0  0  0
 10 11  1  0  0  0  0
 10 27  1  0  0  0  0
 11 12  2  0  0  0  0
 11 13  1  0  0  0  0
 13 14  1  0  0  0  0
 13 28  1  0  0  0  0
 14 15  2  0  0  0  0
 14 19  1  0  0  0  0
 15 16  1  0  0  0  0
 15 21  1  0  0  0  0
 16 17  2  0  0  0  0
 16 29  1  0  0  0  0
 17 18  1  0  0  0  0
 17 20  1  0  0  0  0
 18 19  2  0  0  0  0
 18 30  1  0  0  0  0
 19 31  1  0  0  0  0
M  END
