
 OpenBabel10072620193D

 45 46  0  0  0  0  0  0  0  0999 V2000
    0.0715   -1.9440   -1.3889 C   0  0  0  0  0  0  0  0  0  0  0  0
    0.6103   -1.7083    0.0351 C   0  0  0  0  0  0  0  0  0  0  0  0
    1.7415   -0.8288    0.0286 O   0  0  0  0  0  0  0  0  0  0  0  0
    1.4052    0.4214   -0.5876 C   0  0  0  0  0  0  0  0  0  0  0  0
    0.8833    0.2118   -2.0186 C   0  0  0  0  0  0  0  0  0  0  0  0
   -0.2819   -0.6981   -2.1145 N   0  0  0  0  0  0  0  0  0  0  0  0
   -1.5328   -0.1254   -1.5959 C   0  0  0  0  0  0  0  0  0  0  0  0
   -2.0205    1.1505   -2.2925 C   0  0  0  0  0  0  0  0  0  0  0  0
   -2.3083    0.9801   -3.7848 C   0  0  0  0  0  0  0  0  0  0  0  0
   -2.8460    2.2287   -4.3398 N   0  0  0  0  0  0  0  0  0  0  0  0
   -2.0980    3.3444   -4.7050 C   0  0  0  0  0  0  0  0  0  0  0  0
   -0.4495    3.3212   -4.9921 S   0  0  0  0  0  0  0  0  0  0  0  0
   -2.9424    4.4390   -4.8552 N   0  0  0  0  0  0  0  0  0  0  0  0
   -2.6800    5.8202   -4.7039 C   0  0  0  0  0  0  0  0  0  0  0  0
   -1.5930    6.3301   -3.9870 C   0  0  0  0  0  0  0  0  0  0  0  0
   -1.4409    7.7092   -3.8029 C   0  0  0  0  0  0  0  0  0  0  0  0
   -2.3838    8.5887   -4.3351 C   0  0  0  0  0  0  0  0  0  0  0  0
   -3.4789    8.0974   -5.0471 C   0  0  0  0  0  0  0  0  0  0  0  0
   -3.6243    6.7170   -5.2248 C   0  0  0  0  0  0  0  0  0  0  0  0
   -2.2575   10.3218   -4.0044 S   0  0  0  0  0  0  0  0  0  0  0  0
   -3.5800   10.9014   -4.0276 O   0  0  0  0  0  0  0  0  0  0  0  0
   -1.3429   10.5323   -2.9072 O   0  0  0  0  0  0  0  0  0  0  0  0
   -1.4771   10.8986   -5.3724 N   0  0  0  0  0  0  0  0  0  0  0  0
   -0.7858   -2.6262   -1.3636 H   0  0  0  0  0  0  0  0  0  0  0  0
    0.8520   -2.4553   -1.9680 H   0  0  0  0  0  0  0  0  0  0  0  0
    0.9349   -2.6602    0.4665 H   0  0  0  0  0  0  0  0  0  0  0  0
   -0.1576   -1.2978    0.7000 H   0  0  0  0  0  0  0  0  0  0  0  0
    2.3148    1.0298   -0.6186 H   0  0  0  0  0  0  0  0  0  0  0  0
    0.6797    0.9491    0.0415 H   0  0  0  0  0  0  0  0  0  0  0  0
    1.6921   -0.2402   -2.6077 H   0  0  0  0  0  0  0  0  0  0  0  0
    0.6805    1.1741   -2.4955 H   0  0  0  0  0  0  0  0  0  0  0  0
   -1.4555    0.0898   -0.5241 H   0  0  0  0  0  0  0  0  0  0  0  0
   -2.3269   -0.8766   -1.7010 H   0  0  0  0  0  0  0  0  0  0  0  0
   -1.3082    1.9666   -2.1324 H   0  0  0  0  0  0  0  0  0  0  0  0
   -2.9429    1.4753   -1.7920 H   0  0  0  0  0  0  0  0  0  0  0  0
   -3.0781    0.2153   -3.9364 H   0  0  0  0  0  0  0  0  0  0  0  0
   -1.4154    0.6752   -4.3377 H   0  0  0  0  0  0  0  0  0  0  0  0
   -3.8004    2.4250   -4.0717 H   0  0  0  0  0  0  0  0  0  0  0  0
   -3.8461    4.2088   -5.2486 H   0  0  0  0  0  0  0  0  0  0  0  0
   -0.8634    5.6766   -3.5194 H   0  0  0  0  0  0  0  0  0  0  0  0
   -0.5967    8.0790   -3.2249 H   0  0  0  0  0  0  0  0  0  0  0  0
   -4.2277    8.7748   -5.4510 H   0  0  0  0  0  0  0  0  0  0  0  0
   -4.4864    6.3521   -5.7780 H   0  0  0  0  0  0  0  0  0  0  0  0
   -2.0773   11.5717   -5.8500 H   0  0  0  0  0  0  0  0  0  0  0  0
   -0.5639   11.2760   -5.1169 H   0  0  0  0  0  0  0  0  0  0  0  0
  1  2  1  0  0  0  0
  1  6  1  0  0  0  0
  1 24  1  0  0  0  0
  1 25  1  0  0  0  0
  2  3  1  0  0  0  0
  2 26  1  0  0  0  0
  2 27  1  0  0  0  0
  3  4  1  0  0  0  0
  4  5  1  0  0  0  0
  4 28  1  0  0  0  0
  4 29  1  0  0  0  0
  5  6  1  0  0  0  0
  5 30  1  0  0  0  0
  5 31  1  0  0  0  0
  6  7  1  0  0  0  0
  7  8  1  0  0  0  0
  7 32  1  0  0  0  0
  7 33  1  0  0  0  0
  8  9  1  0  0  0  0
  8 34  1  0  0  0  0
  8 35  1  0  0  0  0
  9 10  1  0  0  0  0
  9 36  1  0  0  0  0
  9 37  1  0  0  0  0
 10 11  1  0  0  0  0
 10 38  1  0  0  0  0
 11 12  2  0  0  0  0
 11 13  1  0  0  0  0
 13 14  1  0  0  0  0
 13 39  1  0  0  0  0
 14 15  2  0  0  0  0
 14 19  1  0  0  0  0
 15 16  1  0  0  0  0
 15 40  1  0  0  0  0
 16 17  2  0  0  0  0
 16 41  1  0  0  0  0
 17 18  1  0  0  0  0
 17 20  1  0  0  0  0
 18 19  2  0  0  0  0
 18 42  1  0  0  0  0
 19 43  1  0  0  0  0
 20 21  2  0  0  0  0
 20 22  2  0  0  0  0
 20 23  1  0  0  0  0
 23 44  1  0  0  0  0
 23 45  1  0  0  0  0
M  END
