
 OpenBabel10072616333D

 50 49  0  0  1  0  0  0  0  0999 V2000
   12.6919    1.7312    3.6202 C   0  0  0  0  0  0  0  0  0  0  0  0
   12.1514    2.0326    2.2545 C   0  0  0  0  0  0  0  0  0  0  0  0
   12.9444    2.3939    1.2313 C   0  0  0  0  0  0  0  0  0  0  0  0
   10.6737    1.8870    2.1101 C   0  0  0  0  0  0  0  0  0  0  0  0
    9.9470    1.5130    3.0208 O   0  0  0  0  0  0  0  0  0  0  0  0
   10.2558    2.2081    0.8604 O   0  0  0  0  0  0  0  0  0  0  0  0
    8.8437    2.0444    0.6251 C   0  0  0  0  0  0  0  0  0  0  0  0
    8.4759    0.5642    0.4670 C   0  0  3  0  0  0  0  0  0  0  0  0
    6.9562    0.3701    0.4621 C   0  0  0  0  0  0  0  0  0  0  0  0
    6.6046   -1.0047    0.2676 O   0  0  0  0  0  0  0  0  0  0  0  0
    6.8589   -1.8868    1.3686 C   0  0  0  0  0  0  0  0  0  0  0  0
    6.1536   -1.5205    2.6791 C   0  0  0  0  0  0  0  0  0  0  0  0
    4.7449   -1.4301    2.4628 O   0  0  0  0  0  0  0  0  0  0  0  0
    4.0406   -1.0976    3.6565 C   0  0  0  0  0  0  0  0  0  0  0  0
    2.5258   -1.0593    3.4031 C   0  0  3  0  0  0  0  0  0  0  0  0
    1.8976   -2.4433    3.1790 C   0  0  0  0  0  0  0  0  0  0  0  0
    2.4111   -3.0917    2.0112 O   0  0  0  0  0  0  0  0  0  0  0  0
    3.3010   -4.0916    2.2260 C   0  0  0  0  0  0  0  0  0  0  0  0
    3.6548   -4.5138    3.3181 O   0  0  0  0  0  0  0  0  0  0  0  0
    3.7695   -4.6753    0.9380 C   0  0  0  0  0  0  0  0  0  0  0  0
    3.7496   -3.9693   -0.2052 C   0  0  0  0  0  0  0  0  0  0  0  0
    4.3007   -6.0716    1.0196 C   0  0  0  0  0  0  0  0  0  0  0  0
    1.8735   -0.4194    4.5091 O   0  0  0  0  0  0  0  0  0  0  0  0
    9.0099    0.0688   -0.7719 O   0  0  0  0  0  0  0  0  0  0  0  0
   13.7829    1.8215    3.6572 H   0  0  0  0  0  0  0  0  0  0  0  0
   12.4373    0.7088    3.9189 H   0  0  0  0  0  0  0  0  0  0  0  0
   12.2768    2.4245    4.3592 H   0  0  0  0  0  0  0  0  0  0  0  0
   14.0189    2.4860    1.3567 H   0  0  0  0  0  0  0  0  0  0  0  0
   12.5538    2.6013    0.2389 H   0  0  0  0  0  0  0  0  0  0  0  0
    8.6212    2.5887   -0.2994 H   0  0  0  0  0  0  0  0  0  0  0  0
    8.2793    2.5238    1.4342 H   0  0  0  0  0  0  0  0  0  0  0  0
    8.9386   -0.0379    1.2525 H   0  0  0  0  0  0  0  0  0  0  0  0
    6.5317    0.9054   -0.3947 H   0  0  0  0  0  0  0  0  0  0  0  0
    6.4823    0.7752    1.3608 H   0  0  0  0  0  0  0  0  0  0  0  0
    7.9378   -1.9782    1.5292 H   0  0  0  0  0  0  0  0  0  0  0  0
    6.5037   -2.8709    1.0446 H   0  0  0  0  0  0  0  0  0  0  0  0
    6.5255   -0.5664    3.0667 H   0  0  0  0  0  0  0  0  0  0  0  0
    6.3556   -2.2997    3.4232 H   0  0  0  0  0  0  0  0  0  0  0  0
    4.3736   -0.1121    4.0052 H   0  0  0  0  0  0  0  0  0  0  0  0
    4.2728   -1.8189    4.4500 H   0  0  0  0  0  0  0  0  0  0  0  0
    2.3408   -0.4507    2.5103 H   0  0  0  0  0  0  0  0  0  0  0  0
    0.8186   -2.3214    3.0265 H   0  0  0  0  0  0  0  0  0  0  0  0
    1.9866   -3.0611    4.0813 H   0  0  0  0  0  0  0  0  0  0  0  0
    3.3963   -2.9422   -0.2423 H   0  0  0  0  0  0  0  0  0  0  0  0
    4.1110   -4.3921   -1.1366 H   0  0  0  0  0  0  0  0  0  0  0  0
    3.5275   -6.7533    1.3882 H   0  0  0  0  0  0  0  0  0  0  0  0
    5.1604   -6.1206    1.6957 H   0  0  0  0  0  0  0  0  0  0  0  0
    4.6270   -6.4407    0.0417 H   0  0  0  0  0  0  0  0  0  0  0  0
    2.0358   -0.9559    5.3047 H   0  0  0  0  0  0  0  0  0  0  0  0
    8.5013   -0.7402   -0.9769 H   0  0  0  0  0  0  0  0  0  0  0  0
  1  2  1  0  0  0  0
  1 25  1  0  0  0  0
  1 26  1  0  0  0  0
  1 27  1  0  0  0  0
  2  3  2  0  0  0  0
  2  4  1  0  0  0  0
  3 28  1  0  0  0  0
  3 29  1  0  0  0  0
  4  5  2  0  0  0  0
  4  6  1  0  0  0  0
  6  7  1  0  0  0  0
  7  8  1  0  0  0  0
  7 30  1  0  0  0  0
  7 31  1  0  0  0  0
  8  9  1  0  0  0  0
  8 24  1  0  0  0  0
  8 32  1  0  0  0  0
  9 10  1  0  0  0  0
  9 33  1  0  0  0  0
  9 34  1  0  0  0  0
 10 11  1  0  0  0  0
 11 12  1  0  0  0  0
 11 35  1  0  0  0  0
 11 36  1  0  0  0  0
 12 13  1  0  0  0  0
 12 37  1  0  0  0  0
 12 38  1  0  0  0  0
 13 14  1  0  0  0  0
 14 15  1  0  0  0  0
 14 39  1  0  0  0  0
 14 40  1  0  0  0  0
 15 16  1  0  0  0  0
 15 23  1  0  0  0  0
 15 41  1  0  0  0  0
 16 17  1  0  0  0  0
 16 42  1  0  0  0  0
 16 43  1  0  0  0  0
 17 18  1  0  0  0  0
 18 19  2  0  0  0  0
 18 20  1  0  0  0  0
 20 21  2  0  0  0  0
 20 22  1  0  0  0  0
 21 44  1  0  0  0  0
 21 45  1  0  0  0  0
 22 46  1  0  0  0  0
 22 47  1  0  0  0  0
 22 48  1  0  0  0  0
 23 49  1  0  0  0  0
 24 50  1  0  0  0  0
M  END
