
 OpenBabel10072619553D

 96102  0  0  0  0  0  0  0  0999 V2000
    6.3002    0.8482    1.9882 C   0  0  0  0  0  0  0  0  0  0  0  0
    6.4810    2.1668    1.3423 N   0  0  0  0  0  0  0  0  0  0  0  0
    6.8440    3.2424    2.2052 C   0  0  0  0  0  0  0  0  0  0  0  0
    7.5683    3.0501    3.3993 C   0  0  0  0  0  0  0  0  0  0  0  0
    7.8245    4.1112    4.2855 C   0  0  0  0  0  0  0  0  0  0  0  0
    7.4212    5.4039    3.9674 C   0  0  0  0  0  0  0  0  0  0  0  0
    6.7445    5.6378    2.7782 C   0  0  0  0  0  0  0  0  0  0  0  0
    6.4542    4.5673    1.9172 C   0  0  0  0  0  0  0  0  0  0  0  0
    7.7691    6.7061    5.0356 Cl  0  0  0  0  0  0  0  0  0  0  0  0
    6.1925    2.2294   -0.0431 C   0  0  0  0  0  0  0  0  0  0  0  0
    5.1718    1.4744   -0.6268 C   0  0  0  0  0  0  0  0  0  0  0  0
    4.8851    1.5687   -1.9867 C   0  0  0  0  0  0  0  0  0  0  0  0
    5.6000    2.3771   -2.7981 N   0  3  0  0  0  0  0  0  0  0  0  0
    6.5764    3.1548   -2.2681 C   0  0  0  0  0  0  0  0  0  0  0  0
    6.8876    3.0846   -0.9051 C   0  0  0  0  0  0  0  0  0  0  0  0
    5.2458    2.4721   -4.2413 C   0  0  0  0  0  0  0  0  0  0  0  0
    6.0192    1.4790   -5.1118 C   0  0  0  0  0  0  0  0  0  0  0  0
    5.5437    0.1721   -5.3674 C   0  0  0  0  0  0  0  0  0  0  0  0
    6.2399   -0.7222   -6.2173 C   0  0  0  0  0  0  0  0  0  0  0  0
    7.4486   -0.2826   -6.7990 C   0  0  0  0  0  0  0  0  0  0  0  0
    7.9572    1.0107   -6.5550 C   0  0  0  0  0  0  0  0  0  0  0  0
    7.2356    1.8727   -5.7052 C   0  0  0  0  0  0  0  0  0  0  0  0
    9.2584    1.4786   -7.2067 C   0  0  0  0  0  0  0  0  0  0  0  0
    8.9866    2.1634   -8.5021 N   0  3  0  0  0  0  0  0  0  0  0  0
    8.7297    3.4953   -8.5335 C   0  0  0  0  0  0  0  0  0  0  0  0
    8.3641    4.1214   -9.7222 C   0  0  0  0  0  0  0  0  0  0  0  0
    8.2952    3.4101  -10.9223 C   0  0  0  0  0  0  0  0  0  0  0  0
    8.6587    2.0606  -10.8680 C   0  0  0  0  0  0  0  0  0  0  0  0
    8.9973    1.4605   -9.6545 C   0  0  0  0  0  0  0  0  0  0  0  0
    7.9093    4.0680  -12.1102 N   0  0  0  0  0  0  0  0  0  0  0  0
    8.4148    3.5021  -13.3774 C   0  0  0  0  0  0  0  0  0  0  0  0
    6.7889    4.9364  -12.2649 C   0  0  0  0  0  0  0  0  0  0  0  0
    6.7867    5.9556  -13.2356 C   0  0  0  0  0  0  0  0  0  0  0  0
    5.6772    6.7917  -13.4217 C   0  0  0  0  0  0  0  0  0  0  0  0
    4.5565    6.6508  -12.6134 C   0  0  0  0  0  0  0  0  0  0  0  0
    4.5343    5.6682  -11.6285 C   0  0  0  0  0  0  0  0  0  0  0  0
    5.6415    4.8215  -11.4557 C   0  0  0  0  0  0  0  0  0  0  0  0
    3.2049    7.6938  -12.8196 Cl  0  0  0  0  0  0  0  0  0  0  0  0
    5.7163   -2.1394   -6.4894 C   0  0  0  0  0  0  0  0  0  0  0  0
    4.8694   -2.2169   -7.7190 N   0  3  0  0  0  0  0  0  0  0  0  0
    5.2587   -2.9589   -8.7846 C   0  0  0  0  0  0  0  0  0  0  0  0
    4.4833   -2.9986   -9.9465 C   0  0  0  0  0  0  0  0  0  0  0  0
    3.2706   -2.3077  -10.0312 C   0  0  0  0  0  0  0  0  0  0  0  0
    2.8637   -1.6252   -8.8869 C   0  0  0  0  0  0  0  0  0  0  0  0
    3.6679   -1.5936   -7.7504 C   0  0  0  0  0  0  0  0  0  0  0  0
    2.5204   -2.3426  -11.2261 N   0  0  0  0  0  0  0  0  0  0  0  0
    1.0577   -2.1774  -11.1040 C   0  0  0  0  0  0  0  0  0  0  0  0
    3.0196   -2.0362  -12.5244 C   0  0  0  0  0  0  0  0  0  0  0  0
    2.4526   -2.6108  -13.6770 C   0  0  0  0  0  0  0  0  0  0  0  0
    2.9217   -2.2964  -14.9583 C   0  0  0  0  0  0  0  0  0  0  0  0
    3.9877   -1.4179  -15.1087 C   0  0  0  0  0  0  0  0  0  0  0  0
    4.5744   -0.8396  -13.9873 C   0  0  0  0  0  0  0  0  0  0  0  0
    4.0968   -1.1497  -12.7071 C   0  0  0  0  0  0  0  0  0  0  0  0
    4.5936   -1.0526  -16.6748 Cl  0  0  0  0  0  0  0  0  0  0  0  0
    6.3970    0.8575    3.0787 H   0  0  0  0  0  0  0  0  0  0  0  0
    7.0316    0.1404    1.5870 H   0  0  0  0  0  0  0  0  0  0  0  0
    5.3099    0.4247    1.7909 H   0  0  0  0  0  0  0  0  0  0  0  0
    7.9560    2.0701    3.6742 H   0  0  0  0  0  0  0  0  0  0  0  0
    8.3358    3.9224    5.2270 H   0  0  0  0  0  0  0  0  0  0  0  0
    6.4189    6.6449    2.5244 H   0  0  0  0  0  0  0  0  0  0  0  0
    5.8743    4.7949    1.0288 H   0  0  0  0  0  0  0  0  0  0  0  0
    4.5331    0.8331   -0.0257 H   0  0  0  0  0  0  0  0  0  0  0  0
    4.0589    1.0116   -2.4185 H   0  0  0  0  0  0  0  0  0  0  0  0
    7.0922    3.8451   -2.9295 H   0  0  0  0  0  0  0  0  0  0  0  0
    7.6916    3.7111   -0.5160 H   0  0  0  0  0  0  0  0  0  0  0  0
    5.4407    3.5010   -4.5736 H   0  0  0  0  0  0  0  0  0  0  0  0
    4.1628    2.3162   -4.3385 H   0  0  0  0  0  0  0  0  0  0  0  0
    4.6178   -0.1585   -4.8930 H   0  0  0  0  0  0  0  0  0  0  0  0
    8.0168   -0.9655   -7.4334 H   0  0  0  0  0  0  0  0  0  0  0  0
    7.6300    2.8701   -5.5032 H   0  0  0  0  0  0  0  0  0  0  0  0
    9.9248    0.6281   -7.3951 H   0  0  0  0  0  0  0  0  0  0  0  0
    9.7988    2.1735   -6.5543 H   0  0  0  0  0  0  0  0  0  0  0  0
    8.8071    4.0482   -7.6030 H   0  0  0  0  0  0  0  0  0  0  0  0
    8.1598    5.1949   -9.7244 H   0  0  0  0  0  0  0  0  0  0  0  0
    8.6659    1.4489  -11.7661 H   0  0  0  0  0  0  0  0  0  0  0  0
    9.2655    0.4071   -9.6073 H   0  0  0  0  0  0  0  0  0  0  0  0
    9.4837    3.2717  -13.2914 H   0  0  0  0  0  0  0  0  0  0  0  0
    8.3187    4.1687  -14.2411 H   0  0  0  0  0  0  0  0  0  0  0  0
    7.8841    2.5727  -13.6101 H   0  0  0  0  0  0  0  0  0  0  0  0
    7.6585    6.1334  -13.8624 H   0  0  0  0  0  0  0  0  0  0  0  0
    5.6987    7.5497  -14.2017 H   0  0  0  0  0  0  0  0  0  0  0  0
    3.6526    5.5564  -11.0020 H   0  0  0  0  0  0  0  0  0  0  0  0
    5.5728    4.0476  -10.6981 H   0  0  0  0  0  0  0  0  0  0  0  0
    5.1039   -2.5057   -5.6567 H   0  0  0  0  0  0  0  0  0  0  0  0
    6.5617   -2.8306   -6.5928 H   0  0  0  0  0  0  0  0  0  0  0  0
    6.1852   -3.5233   -8.7078 H   0  0  0  0  0  0  0  0  0  0  0  0
    4.8078   -3.6050  -10.7938 H   0  0  0  0  0  0  0  0  0  0  0  0
    1.9215   -1.0847   -8.8662 H   0  0  0  0  0  0  0  0  0  0  0  0
    3.3449   -1.0617   -6.8624 H   0  0  0  0  0  0  0  0  0  0  0  0
    0.6632   -2.8845  -10.3645 H   0  0  0  0  0  0  0  0  0  0  0  0
    0.5035   -2.3618  -12.0311 H   0  0  0  0  0  0  0  0  0  0  0  0
    0.8178   -1.1583  -10.7814 H   0  0  0  0  0  0  0  0  0  0  0  0
    1.6373   -3.3280  -13.6017 H   0  0  0  0  0  0  0  0  0  0  0  0
    2.4447   -2.7408  -15.8291 H   0  0  0  0  0  0  0  0  0  0  0  0
    5.3947   -0.1375  -14.1121 H   0  0  0  0  0  0  0  0  0  0  0  0
    4.5547   -0.6552  -11.8571 H   0  0  0  0  0  0  0  0  0  0  0  0
  1  2  1  0  0  0  0
  1 55  1  0  0  0  0
  1 56  1  0  0  0  0
  1 57  1  0  0  0  0
  2  3  1  0  0  0  0
  2 10  1  0  0  0  0
  3  4  2  0  0  0  0
  3  8  1  0  0  0  0
  4  5  1  0  0  0  0
  4 58  1  0  0  0  0
  5  6  2  0  0  0  0
  5 59  1  0  0  0  0
  6  7  1  0  0  0  0
  6  9  1  0  0  0  0
  7  8  2  0  0  0  0
  7 60  1  0  0  0  0
  8 61  1  0  0  0  0
 10 11  2  0  0  0  0
 10 15  1  0  0  0  0
 11 12  1  0  0  0  0
 11 62  1  0  0  0  0
 12 13  2  0  0  0  0
 12 63  1  0  0  0  0
 13 14  1  0  0  0  0
 13 16  1  0  0  0  0
 14 15  2  0  0  0  0
 14 64  1  0  0  0  0
 15 65  1  0  0  0  0
 16 17  1  0  0  0  0
 16 66  1  0  0  0  0
 16 67  1  0  0  0  0
 17 18  2  0  0  0  0
 17 22  1  0  0  0  0
 18 19  1  0  0  0  0
 18 68  1  0  0  0  0
 19 20  2  0  0  0  0
 19 39  1  0  0  0  0
 20 21  1  0  0  0  0
 20 69  1  0  0  0  0
 21 22  2  0  0  0  0
 21 23  1  0  0  0  0
 22 70  1  0  0  0  0
 23 24  1  0  0  0  0
 23 71  1  0  0  0  0
 23 72  1  0  0  0  0
 24 25  2  0  0  0  0
 24 29  1  0  0  0  0
 25 26  1  0  0  0  0
 25 73  1  0  0  0  0
 26 27  2  0  0  0  0
 26 74  1  0  0  0  0
 27 28  1  0  0  0  0
 27 30  1  0  0  0  0
 28 29  2  0  0  0  0
 28 75  1  0  0  0  0
 29 76  1  0  0  0  0
 30 31  1  0  0  0  0
 30 32  1  0  0  0  0
 31 77  1  0  0  0  0
 31 78  1  0  0  0  0
 31 79  1  0  0  0  0
 32 33  2  0  0  0  0
 32 37  1  0  0  0  0
 33 34  1  0  0  0  0
 33 80  1  0  0  0  0
 34 35  2  0  0  0  0
 34 81  1  0  0  0  0
 35 36  1  0  0  0  0
 35 38  1  0  0  0  0
 36 37  2  0  0  0  0
 36 82  1  0  0  0  0
 37 83  1  0  0  0  0
 39 40  1  0  0  0  0
 39 84  1  0  0  0  0
 39 85  1  0  0  0  0
 40 41  2  0  0  0  0
 40 45  1  0  0  0  0
 41 42  1  0  0  0  0
 41 86  1  0  0  0  0
 42 43  2  0  0  0  0
 42 87  1  0  0  0  0
 43 44  1  0  0  0  0
 43 46  1  0  0  0  0
 44 45  2  0  0  0  0
 44 88  1  0  0  0  0
 45 89  1  0  0  0  0
 46 47  1  0  0  0  0
 46 48  1  0  0  0  0
 47 90  1  0  0  0  0
 47 91  1  0  0  0  0
 47 92  1  0  0  0  0
 48 49  2  0  0  0  0
 48 53  1  0  0  0  0
 49 50  1  0  0  0  0
 49 93  1  0  0  0  0
 50 51  2  0  0  0  0
 50 94  1  0  0  0  0
 51 52  1  0  0  0  0
 51 54  1  0  0  0  0
 52 53  2  0  0  0  0
 52 95  1  0  0  0  0
 53 96  1  0  0  0  0
M  CHG  3  13   1  24   1  40   1
M  END
