
 OpenBabel10072619233D

264272  0  0  1  0  0  0  0  0999 V2000
    1.2341   -0.0742   -0.9706 C   0  0  0  0  0  0  0  0  0  0  0  0
    0.1896    1.5207   -1.1782 C   0  0  3  0  0  0  0  0  0  0  0  0
    0.6938    3.4107   -0.8881 C   0  0  3  0  0  0  0  0  0  0  0  0
    1.8616    2.8428   -0.1660 C   0  0  3  0  0  0  0  0  0  0  0  0
    0.6232    2.6682    0.7588 C   0  0  3  0  0  0  0  0  0  0  0  0
   -0.7602    1.2929    0.8301 C   0  0  3  0  0  0  0  0  0  0  0  0
   -1.1190    1.3065   -0.5476 O   0  0  0  0  0  0  0  0  0  0  0  0
   -1.4805    0.9273    2.5478 O   0  0  0  0  0  0  0  0  0  0  0  0
   -0.7635    1.5479    4.2141 C   0  0  3  0  0  0  0  0  0  0  0  0
    0.4684    2.8657    4.7108 C   0  0  3  0  0  0  0  0  0  0  0  0
    1.6620    2.7134    4.1072 O   0  0  0  0  0  0  0  0  0  0  0  0
    2.7919    2.0734    4.5570 C   0  0  3  0  0  0  0  0  0  0  0  0
    2.0955    0.6078    4.8298 C   0  0  3  0  0  0  0  0  0  0  0  0
    0.1892    0.5687    4.9223 C   0  0  3  0  0  0  0  0  0  0  0  0
   -0.7062   -0.4881    4.8344 O   0  0  0  0  0  0  0  0  0  0  0  0
   -0.6551   -1.6345    5.8908 S   0  0  0  0  0  0  0  0  0  0  0  0
   -1.5497   -2.6530    5.4280 O   0  0  0  0  0  0  0  0  0  0  0  0
    0.7586   -1.7845    6.1579 O   0  0  0  0  0  0  0  0  0  0  0  0
   -1.4196   -0.8962    7.0986 O   0  0  0  0  0  0  0  0  0  0  0  0
    3.0680   -0.4303    4.8409 O   0  0  0  0  0  0  0  0  0  0  0  0
    3.9244   -0.6463    3.3934 S   0  0  0  0  0  0  0  0  0  0  0  0
    3.0499   -0.9956    2.3010 O   0  0  0  0  0  0  0  0  0  0  0  0
    4.7943    0.4755    3.1375 O   0  0  0  0  0  0  0  0  0  0  0  0
    4.7018   -1.9735    3.7363 O   0  0  0  0  0  0  0  0  0  0  0  0
    3.6105    3.0727    5.1369 O   0  0  0  0  0  0  0  0  0  0  0  0
    3.9104    4.3782    4.3719 C   0  0  3  0  0  0  0  0  0  0  0  0
    3.1967    5.6498    3.7398 C   0  0  3  0  0  0  0  0  0  0  0  0
    3.2344    5.9282    2.3350 O   0  0  0  0  0  0  0  0  0  0  0  0
    4.4394    6.0324    1.6457 C   0  0  3  0  0  0  0  0  0  0  0  0
    5.5463    5.1003    2.5619 C   0  0  3  0  0  0  0  0  0  0  0  0
    5.3205    4.8799    4.1361 C   0  0  3  0  0  0  0  0  0  0  0  0
    6.2276    4.0481    4.7975 O   0  0  0  0  0  0  0  0  0  0  0  0
    7.5192    4.7674    5.4684 S   0  0  0  0  0  0  0  0  0  0  0  0
    8.1837    3.7534    6.2454 O   0  0  0  0  0  0  0  0  0  0  0  0
    8.2189    5.5109    4.4443 O   0  0  0  0  0  0  0  0  0  0  0  0
    6.8970    5.8261    6.5191 O   0  0  0  0  0  0  0  0  0  0  0  0
    6.8663    5.4632    2.2085 O   0  0  0  0  0  0  0  0  0  0  0  0
    7.2963    5.0056    0.7329 S   0  0  0  0  0  0  0  0  0  0  0  0
    7.1149    3.5725    0.7359 O   0  0  0  0  0  0  0  0  0  0  0  0
    6.6891    5.8730   -0.2400 O   0  0  0  0  0  0  0  0  0  0  0  0
    8.8629    5.3180    0.7453 O   0  0  0  0  0  0  0  0  0  0  0  0
    4.8107    7.4066    1.2029 O   0  0  0  0  0  0  0  0  0  0  0  0
    4.1617    8.7356    1.0127 C   0  0  3  0  0  0  0  0  0  0  0  0
    2.7410    8.7441    0.9568 C   0  0  3  0  0  0  0  0  0  0  0  0
    2.6270    7.6513    0.2056 O   0  0  0  0  0  0  0  0  0  0  0  0
    2.5133    8.0361   -1.0921 C   0  0  3  0  0  0  0  0  0  0  0  0
    3.9720    8.0838   -1.3909 C   0  0  3  0  0  0  0  0  0  0  0  0
    4.3838    9.1762   -0.4067 C   0  0  3  0  0  0  0  0  0  0  0  0
    5.6988    9.4193   -0.2295 O   0  0  0  0  0  0  0  0  0  0  0  0
    6.4886    9.8045   -1.5148 S   0  0  0  0  0  0  0  0  0  0  0  0
    6.5818    8.6002   -2.3040 O   0  0  0  0  0  0  0  0  0  0  0  0
    5.9005   11.0289   -1.9850 O   0  0  0  0  0  0  0  0  0  0  0  0
    7.8423   10.0673   -0.7376 O   0  0  0  0  0  0  0  0  0  0  0  0
    4.1914    7.8139   -2.7250 O   0  0  0  0  0  0  0  0  0  0  0  0
    3.5470    8.7569   -3.8471 S   0  0  0  0  0  0  0  0  0  0  0  0
    3.3737    7.9647   -5.0420 O   0  0  0  0  0  0  0  0  0  0  0  0
    2.5153    9.5622   -3.2321 O   0  0  0  0  0  0  0  0  0  0  0  0
    4.8528    9.6073   -4.0767 O   0  0  0  0  0  0  0  0  0  0  0  0
    0.8151    8.6322   -1.6597 O   0  0  0  0  0  0  0  0  0  0  0  0
   -0.9307    7.9242   -1.7899 C   0  0  3  0  0  0  0  0  0  0  0  0
   -2.1349    7.4883   -0.6216 C   0  0  3  0  0  0  0  0  0  0  0  0
   -2.1156    6.0779   -0.1151 O   0  0  0  0  0  0  0  0  0  0  0  0
   -2.2694    4.8825   -0.9045 C   0  0  3  0  0  0  0  0  0  0  0  0
   -1.7605    4.9952   -2.3678 C   0  0  3  0  0  0  0  0  0  0  0  0
   -1.6196    6.6720   -2.9734 C   0  0  3  0  0  0  0  0  0  0  0  0
   -0.9372    6.7354   -4.2502 O   0  0  0  0  0  0  0  0  0  0  0  0
   -0.8703    8.2091   -4.9080 S   0  0  0  0  0  0  0  0  0  0  0  0
   -2.2123    8.4175   -5.3897 O   0  0  0  0  0  0  0  0  0  0  0  0
   -0.2479    9.1309   -3.9954 O   0  0  0  0  0  0  0  0  0  0  0  0
    0.1165    8.0016   -6.1468 O   0  0  0  0  0  0  0  0  0  0  0  0
   -1.6944    3.9187   -3.2877 O   0  0  0  0  0  0  0  0  0  0  0  0
   -3.0476    3.5515   -3.9805 S   0  0  0  0  0  0  0  0  0  0  0  0
   -2.7991    2.3860   -4.7797 O   0  0  0  0  0  0  0  0  0  0  0  0
   -4.0309    3.6451   -2.9415 O   0  0  0  0  0  0  0  0  0  0  0  0
   -3.1831    4.7751   -4.9888 O   0  0  0  0  0  0  0  0  0  0  0  0
   -3.4704    4.2581   -0.5971 O   0  0  0  0  0  0  0  0  0  0  0  0
   -3.8120    3.9839    0.7890 C   0  0  3  0  0  0  0  0  0  0  0  0
   -3.6954    5.0978    1.7981 C   0  0  3  0  0  0  0  0  0  0  0  0
   -2.3843    5.2296    2.2306 O   0  0  0  0  0  0  0  0  0  0  0  0
   -1.9511    4.0983    2.8740 C   0  0  3  0  0  0  0  0  0  0  0  0
   -1.8514    2.9600    1.9513 C   0  0  3  0  0  0  0  0  0  0  0  0
   -3.2419    2.6206    1.4075 C   0  0  3  0  0  0  0  0  0  0  0  0
   -3.2829    1.7109    0.3364 O   0  0  0  0  0  0  0  0  0  0  0  0
   -4.7296    1.2993   -0.2542 S   0  0  0  0  0  0  0  0  0  0  0  0
   -4.5205    0.2371   -1.2033 O   0  0  0  0  0  0  0  0  0  0  0  0
   -5.6063    1.1840    0.8901 O   0  0  0  0  0  0  0  0  0  0  0  0
   -5.2273    2.5862   -1.0680 O   0  0  0  0  0  0  0  0  0  0  0  0
   -0.3784    2.4091    2.5349 O   0  0  0  0  0  0  0  0  0  0  0  0
    0.8065    0.8523    2.4041 S   0  0  0  0  0  0  0  0  0  0  0  0
    0.4458   -0.3597    3.0583 O   0  0  0  0  0  0  0  0  0  0  0  0
    1.2442    0.6150    1.1238 O   0  0  0  0  0  0  0  0  0  0  0  0
    2.2099    1.5018    2.6159 O   0  0  0  0  0  0  0  0  0  0  0  0
   -2.4449    3.9304    4.1511 O   0  0  0  0  0  0  0  0  0  0  0  0
   -2.1260    4.9328    5.1003 C   0  0  3  0  0  0  0  0  0  0  0  0
   -2.1856    6.4458    4.7916 C   0  0  3  0  0  0  0  0  0  0  0  0
   -1.2135    6.6876    3.8649 O   0  0  0  0  0  0  0  0  0  0  0  0
    0.0636    6.7370    4.3237 C   0  0  3  0  0  0  0  0  0  0  0  0
    0.3880    5.5920    5.1799 C   0  0  3  0  0  0  0  0  0  0  0  0
   -0.8583    4.6337    5.7928 C   0  0  3  0  0  0  0  0  0  0  0  0
   -0.9111    2.9855    6.4189 O   0  0  0  0  0  0  0  0  0  0  0  0
    0.2420    2.0487    7.6436 S   0  0  0  0  0  0  0  0  0  0  0  0
    1.5950    1.9156    7.1709 O   0  0  0  0  0  0  0  0  0  0  0  0
   -0.1114    2.4119    8.9714 O   0  0  0  0  0  0  0  0  0  0  0  0
    0.2064    0.4870    7.4789 O   0  0  0  0  0  0  0  0  0  0  0  0
    1.6604    6.0695    5.7675 O   0  0  0  0  0  0  0  0  0  0  0  0
    2.7325    6.3266    7.0573 S   0  0  0  0  0  0  0  0  0  0  0  0
    2.4873    5.4759    8.1770 O   0  0  0  0  0  0  0  0  0  0  0  0
    4.0923    6.2372    6.5539 O   0  0  0  0  0  0  0  0  0  0  0  0
    2.5632    7.8450    7.5245 O   0  0  0  0  0  0  0  0  0  0  0  0
    0.3796    7.9808    4.7365 O   0  0  0  0  0  0  0  0  0  0  0  0
    0.1605    8.8518    3.6815 C   0  0  3  0  0  0  0  0  0  0  0  0
   -1.1743    8.9179    2.8136 C   0  0  3  0  0  0  0  0  0  0  0  0
   -1.5129    7.5259    1.8134 O   0  0  0  0  0  0  0  0  0  0  0  0
   -0.2579    6.7259    0.7296 C   0  0  3  0  0  0  0  0  0  0  0  0
   -0.0813    5.1342   -0.4111 O   0  0  0  0  0  0  0  0  0  0  0  0
    0.9946    7.2870    1.3194 C   0  0  3  0  0  0  0  0  0  0  0  0
    1.2434    8.7162    2.6796 C   0  0  3  0  0  0  0  0  0  0  0  0
    2.6501    9.1438    3.2475 O   0  0  0  0  0  0  0  0  0  0  0  0
    2.7998   10.2457    4.3941 S   0  0  0  0  0  0  0  0  0  0  0  0
    2.5756   11.5095    3.8015 O   0  0  0  0  0  0  0  0  0  0  0  0
    2.1476    9.6912    5.5362 O   0  0  0  0  0  0  0  0  0  0  0  0
    4.2238   10.2835    5.0480 O   0  0  0  0  0  0  0  0  0  0  0  0
    0.8457    7.1891   -0.4375 O   0  0  0  0  0  0  0  0  0  0  0  0
    1.2195    6.4649   -2.1765 S   0  0  0  0  0  0  0  0  0  0  0  0
    0.1619    5.7861   -2.6326 O   0  0  0  0  0  0  0  0  0  0  0  0
    1.6821    7.3334   -3.2354 O   0  0  0  0  0  0  0  0  0  0  0  0
    2.1132    5.2325   -2.2067 O   0  0  0  0  0  0  0  0  0  0  0  0
   -1.2041   10.6139    2.7212 C   0  0  0  0  0  0  0  0  0  0  0  0
   -2.1035   11.5223    2.1094 O   0  0  0  0  0  0  0  0  0  0  0  0
   -1.6524   13.1441    2.1515 S   0  0  0  0  0  0  0  0  0  0  0  0
   -1.2019   13.4984    3.4802 O   0  0  0  0  0  0  0  0  0  0  0  0
   -0.8654   13.4094    0.9678 O   0  0  0  0  0  0  0  0  0  0  0  0
   -3.0431   13.9397    2.0085 O   0  0  0  0  0  0  0  0  0  0  0  0
   -1.9353    7.4148    5.9219 C   0  0  0  0  0  0  0  0  0  0  0  0
   -2.0315    8.7509    5.4885 O   0  0  0  0  0  0  0  0  0  0  0  0
   -1.4806    9.8929    6.4970 S   0  0  0  0  0  0  0  0  0  0  0  0
   -0.0612    9.7728    6.6667 O   0  0  0  0  0  0  0  0  0  0  0  0
   -2.0982   11.1227    6.0763 O   0  0  0  0  0  0  0  0  0  0  0  0
   -2.0847    9.3583    7.8762 O   0  0  0  0  0  0  0  0  0  0  0  0
   -4.6407    4.7809    2.9224 C   0  0  0  0  0  0  0  0  0  0  0  0
   -4.5966    5.8066    3.8508 O   0  0  0  0  0  0  0  0  0  0  0  0
   -5.3242    5.5606    5.2572 S   0  0  0  0  0  0  0  0  0  0  0  0
   -6.7303    5.6068    4.9938 O   0  0  0  0  0  0  0  0  0  0  0  0
   -4.6984    4.4582    5.9460 O   0  0  0  0  0  0  0  0  0  0  0  0
   -4.8770    6.9199    5.9916 O   0  0  0  0  0  0  0  0  0  0  0  0
   -3.5313    7.5625   -1.0130 C   0  0  0  0  0  0  0  0  0  0  0  0
   -4.3698    7.3993    0.1012 O   0  0  0  0  0  0  0  0  0  0  0  0
   -5.8035    6.8422   -0.3790 S   0  0  0  0  0  0  0  0  0  0  0  0
   -6.4273    7.9821   -0.9926 O   0  0  0  0  0  0  0  0  0  0  0  0
   -5.5981    5.5972   -1.0717 O   0  0  0  0  0  0  0  0  0  0  0  0
   -6.5188    6.5200    1.0173 O   0  0  0  0  0  0  0  0  0  0  0  0
    1.5474    9.8155    0.4365 C   0  0  0  0  0  0  0  0  0  0  0  0
    1.2159   11.0049    1.0930 O   0  0  0  0  0  0  0  0  0  0  0  0
    2.3291   12.1303    1.1124 S   0  0  0  0  0  0  0  0  0  0  0  0
    1.7968   13.2167    1.8841 O   0  0  0  0  0  0  0  0  0  0  0  0
    3.5599   11.4276    1.3795 O   0  0  0  0  0  0  0  0  0  0  0  0
    2.2152   12.4532   -0.4370 O   0  0  0  0  0  0  0  0  0  0  0  0
    3.2610    7.0473    4.3191 C   0  0  0  0  0  0  0  0  0  0  0  0
    4.2607    7.8281    4.8350 O   0  0  0  0  0  0  0  0  0  0  0  0
    5.5237    8.2323    3.9855 S   0  0  0  0  0  0  0  0  0  0  0  0
    5.7262    7.3179    2.9814 O   0  0  0  0  0  0  0  0  0  0  0  0
    5.5652    9.6228    3.6640 O   0  0  0  0  0  0  0  0  0  0  0  0
    6.5988    7.8834    5.0433 O   0  0  0  0  0  0  0  0  0  0  0  0
    1.2443    3.7881    6.1450 C   0  0  0  0  0  0  0  0  0  0  0  0
    0.5001    4.3176    7.4499 O   0  0  0  0  0  0  0  0  0  0  0  0
   -0.0329    5.5732    8.4390 S   0  0  0  0  0  0  0  0  0  0  0  0
    0.2131    5.2144    9.8019 O   0  0  0  0  0  0  0  0  0  0  0  0
    0.3457    6.8270    7.8431 O   0  0  0  0  0  0  0  0  0  0  0  0
   -1.6589    5.7346    8.3285 O   0  0  0  0  0  0  0  0  0  0  0  0
    0.0737    3.8454    1.0946 O   0  0  0  0  0  0  0  0  0  0  0  0
    1.0468    4.7855    1.8054 S   0  0  0  0  0  0  0  0  0  0  0  0
    1.7151    4.1844    2.8040 O   0  0  0  0  0  0  0  0  0  0  0  0
    1.8331    5.3867    0.7654 O   0  0  0  0  0  0  0  0  0  0  0  0
   -0.1612    5.6312    2.3714 O   0  0  0  0  0  0  0  0  0  0  0  0
    2.8199    3.8050   -0.5429 O   0  0  0  0  0  0  0  0  0  0  0  0
    3.8998    3.4414   -1.6787 S   0  0  0  0  0  0  0  0  0  0  0  0
    3.1696    3.1213   -2.8874 O   0  0  0  0  0  0  0  0  0  0  0  0
    4.9600    4.4016   -1.5979 O   0  0  0  0  0  0  0  0  0  0  0  0
    4.3852    2.0267   -1.1319 O   0  0  0  0  0  0  0  0  0  0  0  0
    0.4848   -1.3450   -0.8314 O   0  0  0  0  0  0  0  0  0  0  0  0
    1.1950   -2.6725   -0.0780 S   0  0  0  0  0  0  0  0  0  0  0  0
    2.4232   -3.0000   -0.7711 O   0  0  0  0  0  0  0  0  0  0  0  0
    1.1827   -2.5279    1.3570 O   0  0  0  0  0  0  0  0  0  0  0  0
    0.1736   -3.8850   -0.3869 O   0  0  0  0  0  0  0  0  0  0  0  0
    2.0141   -0.2071   -0.1961 H   0  0  0  0  0  0  0  0  0  0  0  0
    1.9987   -0.1496   -1.7414 H   0  0  0  0  0  0  0  0  0  0  0  0
    0.1289    1.4287   -2.2591 H   0  0  0  0  0  0  0  0  0  0  0  0
    0.9999    3.4630   -1.9057 H   0  0  0  0  0  0  0  0  0  0  0  0
    2.4659    2.8582    0.7431 H   0  0  0  0  0  0  0  0  0  0  0  0
    1.1406    2.7059    1.6539 H   0  0  0  0  0  0  0  0  0  0  0  0
   -0.5722    0.2167    0.7771 H   0  0  0  0  0  0  0  0  0  0  0  0
   -1.7421    1.7903    4.6483 H   0  0  0  0  0  0  0  0  0  0  0  0
   -0.0293    3.5616    4.1292 H   0  0  0  0  0  0  0  0  0  0  0  0
    3.4972    1.9782    3.7466 H   0  0  0  0  0  0  0  0  0  0  0  0
    2.0432    0.2118    3.8735 H   0  0  0  0  0  0  0  0  0  0  0  0
   -0.0012    1.0648    5.7870 H   0  0  0  0  0  0  0  0  0  0  0  0
   -2.0326   -0.2189    6.7555 H   0  0  0  0  0  0  0  0  0  0  0  0
    3.9710   -2.5940    3.9593 H   0  0  0  0  0  0  0  0  0  0  0  0
    3.7330    4.7770    5.3319 H   0  0  0  0  0  0  0  0  0  0  0  0
    2.1773    5.5449    3.8686 H   0  0  0  0  0  0  0  0  0  0  0  0
    4.3230    5.5110    0.6922 H   0  0  0  0  0  0  0  0  0  0  0  0
    5.4049    4.0451    2.3253 H   0  0  0  0  0  0  0  0  0  0  0  0
    5.3550    5.8149    4.6824 H   0  0  0  0  0  0  0  0  0  0  0  0
    6.1259    5.4642    6.9961 H   0  0  0  0  0  0  0  0  0  0  0  0
    9.1791    5.1060    1.6432 H   0  0  0  0  0  0  0  0  0  0  0  0
    4.4671    9.3988    1.8169 H   0  0  0  0  0  0  0  0  0  0  0  0
    2.6928    8.1125    1.8049 H   0  0  0  0  0  0  0  0  0  0  0  0
    2.7033    6.9821   -1.2357 H   0  0  0  0  0  0  0  0  0  0  0  0
    4.4375    7.1611   -0.9419 H   0  0  0  0  0  0  0  0  0  0  0  0
    3.7756   10.0515   -0.6511 H   0  0  0  0  0  0  0  0  0  0  0  0
    7.7390    9.4980    0.0606 H   0  0  0  0  0  0  0  0  0  0  0  0
    5.5438    8.9007   -4.0240 H   0  0  0  0  0  0  0  0  0  0  0  0
   -1.3262    8.9188   -2.0348 H   0  0  0  0  0  0  0  0  0  0  0  0
   -2.0779    8.2625    0.1718 H   0  0  0  0  0  0  0  0  0  0  0  0
   -1.6357    4.0839   -0.5269 H   0  0  0  0  0  0  0  0  0  0  0  0
   -0.8043    4.5611   -2.1392 H   0  0  0  0  0  0  0  0  0  0  0  0
   -2.6656    6.8685   -3.1971 H   0  0  0  0  0  0  0  0  0  0  0  0
    0.3090    7.0543   -6.2363 H   0  0  0  0  0  0  0  0  0  0  0  0
   -2.8048    4.4430   -5.8291 H   0  0  0  0  0  0  0  0  0  0  0  0
   -4.8759    3.8589    0.6844 H   0  0  0  0  0  0  0  0  0  0  0  0
   -3.8970    6.0848    1.4614 H   0  0  0  0  0  0  0  0  0  0  0  0
   -0.9368    4.2221    3.0458 H   0  0  0  0  0  0  0  0  0  0  0  0
   -1.5886    3.2355    0.9616 H   0  0  0  0  0  0  0  0  0  0  0  0
   -3.8157    2.2393    2.2453 H   0  0  0  0  0  0  0  0  0  0  0  0
   -4.4981    3.1049   -1.5039 H   0  0  0  0  0  0  0  0  0  0  0  0
    2.8546    1.3273    1.9590 H   0  0  0  0  0  0  0  0  0  0  0  0
   -2.7693    4.7269    5.9194 H   0  0  0  0  0  0  0  0  0  0  0  0
   -3.0367    6.8021    4.2588 H   0  0  0  0  0  0  0  0  0  0  0  0
    0.7776    6.6883    3.5283 H   0  0  0  0  0  0  0  0  0  0  0  0
    0.5542    4.9786    4.2867 H   0  0  0  0  0  0  0  0  0  0  0  0
   -1.0590    5.1714    6.6402 H   0  0  0  0  0  0  0  0  0  0  0  0
    1.0924    0.2873    7.0059 H   0  0  0  0  0  0  0  0  0  0  0  0
    2.7582    8.4850    6.8208 H   0  0  0  0  0  0  0  0  0  0  0  0
    0.2987    9.7989    4.2056 H   0  0  0  0  0  0  0  0  0  0  0  0
   -2.0303    8.8068    3.4635 H   0  0  0  0  0  0  0  0  0  0  0  0
   -0.5559    7.6155    0.1869 H   0  0  0  0  0  0  0  0  0  0  0  0
    0.1864    7.6965    1.8103 H   0  0  0  0  0  0  0  0  0  0  0  0
    1.0814    9.6713    2.3164 H   0  0  0  0  0  0  0  0  0  0  0  0
    4.1880    9.6706    5.7982 H   0  0  0  0  0  0  0  0  0  0  0  0
    1.3695    4.7193   -2.6264 H   0  0  0  0  0  0  0  0  0  0  0  0
   -0.2017   11.0390    2.6389 H   0  0  0  0  0  0  0  0  0  0  0  0
   -1.3772   10.8250    3.7884 H   0  0  0  0  0  0  0  0  0  0  0  0
   -3.3003   14.2119    2.9161 H   0  0  0  0  0  0  0  0  0  0  0  0
   -0.9256    7.3040    6.2689 H   0  0  0  0  0  0  0  0  0  0  0  0
   -2.5907    7.2246    6.7476 H   0  0  0  0  0  0  0  0  0  0  0  0
   -1.4943    8.6174    8.1551 H   0  0  0  0  0  0  0  0  0  0  0  0
   -4.3708    3.8453    3.3983 H   0  0  0  0  0  0  0  0  0  0  0  0
   -5.6508    4.6986    2.5591 H   0  0  0  0  0  0  0  0  0  0  0  0
   -5.0464    7.6753    5.3878 H   0  0  0  0  0  0  0  0  0  0  0  0
   -3.6573    6.6695   -1.5951 H   0  0  0  0  0  0  0  0  0  0  0  0
   -3.7629    8.4810   -1.5150 H   0  0  0  0  0  0  0  0  0  0  0  0
   -6.5639    7.3424    1.5356 H   0  0  0  0  0  0  0  0  0  0  0  0
    0.5544    9.3246    0.4567 H   0  0  0  0  0  0  0  0  0  0  0  0
    1.6632   10.0774   -0.5926 H   0  0  0  0  0  0  0  0  0  0  0  0
    1.3045   12.1627   -0.6840 H   0  0  0  0  0  0  0  0  0  0  0  0
    2.5879    7.3998    5.0503 H   0  0  0  0  0  0  0  0  0  0  0  0
    2.6341    7.4212    3.5691 H   0  0  0  0  0  0  0  0  0  0  0  0
    6.7414    8.7612    5.3934 H   0  0  0  0  0  0  0  0  0  0  0  0
    2.0392    4.3982    5.8317 H   0  0  0  0  0  0  0  0  0  0  0  0
    2.1513    3.2844    6.4412 H   0  0  0  0  0  0  0  0  0  0  0  0
   -2.1886    4.9417    8.1262 H   0  0  0  0  0  0  0  0  0  0  0  0
   -1.1225    5.7503    1.9825 H   0  0  0  0  0  0  0  0  0  0  0  0
    3.9402    1.3665   -1.6944 H   0  0  0  0  0  0  0  0  0  0  0  0
   -0.0320   -3.9195   -1.3370 H   0  0  0  0  0  0  0  0  0  0  0  0
  1  2  1  0  0  0  0
  1180  1  0  0  0  0
  1185  1  0  0  0  0
  1186  1  0  0  0  0
  2  3  1  0  0  0  0
  2  7  1  0  0  0  0
  2187  1  0  0  0  0
  3  4  1  0  0  0  0
  3115  1  0  0  0  0
  3188  1  0  0  0  0
  4  5  1  0  0  0  0
  4175  1  0  0  0  0
  4189  1  0  0  0  0
  5  6  1  0  0  0  0
  5170  1  0  0  0  0
  5190  1  0  0  0  0
  6  7  1  0  0  0  0
  6  8  1  0  0  0  0
  6191  1  0  0  0  0
  8  9  1  0  0  0  0
  9 10  1  0  0  0  0
  9 14  1  0  0  0  0
  9192  1  0  0  0  0
 10 11  1  0  0  0  0
 10164  1  0  0  0  0
 10193  1  0  0  0  0
 11 12  1  0  0  0  0
 12 13  1  0  0  0  0
 12 25  1  0  0  0  0
 12194  1  0  0  0  0
 13 14  1  0  0  0  0
 13 20  1  0  0  0  0
 13195  1  0  0  0  0
 14 15  1  0  0  0  0
 14196  1  0  0  0  0
 15 16  1  0  0  0  0
 16 17  2  0  0  0  0
 16 18  2  0  0  0  0
 16 19  1  0  0  0  0
 19197  1  0  0  0  0
 20 21  1  0  0  0  0
 21 22  2  0  0  0  0
 21 23  2  0  0  0  0
 21 24  1  0  0  0  0
 24198  1  0  0  0  0
 25 26  1  0  0  0  0
 26 27  1  0  0  0  0
 26 31  1  0  0  0  0
 26199  1  0  0  0  0
 27 28  1  0  0  0  0
 27158  1  0  0  0  0
 27200  1  0  0  0  0
 28 29  1  0  0  0  0
 29 30  1  0  0  0  0
 29 42  1  0  0  0  0
 29201  1  0  0  0  0
 30 31  1  0  0  0  0
 30 37  1  0  0  0  0
 30202  1  0  0  0  0
 31 32  1  0  0  0  0
 31203  1  0  0  0  0
 32 33  1  0  0  0  0
 33 34  2  0  0  0  0
 33 35  2  0  0  0  0
 33 36  1  0  0  0  0
 36204  1  0  0  0  0
 37 38  1  0  0  0  0
 38 39  2  0  0  0  0
 38 40  2  0  0  0  0
 38 41  1  0  0  0  0
 41205  1  0  0  0  0
 42 43  1  0  0  0  0
 43 44  1  0  0  0  0
 43 48  1  0  0  0  0
 43206  1  0  0  0  0
 44 45  1  0  0  0  0
 44152  1  0  0  0  0
 44207  1  0  0  0  0
 45 46  1  0  0  0  0
 46 47  1  0  0  0  0
 46 59  1  0  0  0  0
 46208  1  0  0  0  0
 47 48  1  0  0  0  0
 47 54  1  0  0  0  0
 47209  1  0  0  0  0
 48 49  1  0  0  0  0
 48210  1  0  0  0  0
 49 50  1  0  0  0  0
 50 51  2  0  0  0  0
 50 52  2  0  0  0  0
 50 53  1  0  0  0  0
 53211  1  0  0  0  0
 54 55  1  0  0  0  0
 55 56  2  0  0  0  0
 55 57  2  0  0  0  0
 55 58  1  0  0  0  0
 58212  1  0  0  0  0
 59 60  1  0  0  0  0
 60 61  1  0  0  0  0
 60 65  1  0  0  0  0
 60213  1  0  0  0  0
 61 62  1  0  0  0  0
 61146  1  0  0  0  0
 61214  1  0  0  0  0
 62 63  1  0  0  0  0
 63 64  1  0  0  0  0
 63 76  1  0  0  0  0
 63215  1  0  0  0  0
 64 65  1  0  0  0  0
 64 71  1  0  0  0  0
 64216  1  0  0  0  0
 65 66  1  0  0  0  0
 65217  1  0  0  0  0
 66 67  1  0  0  0  0
 67 68  2  0  0  0  0
 67 69  2  0  0  0  0
 67 70  1  0  0  0  0
 70218  1  0  0  0  0
 71 72  1  0  0  0  0
 72 73  2  0  0  0  0
 72 74  2  0  0  0  0
 72 75  1  0  0  0  0
 75219  1  0  0  0  0
 76 77  1  0  0  0  0
 77 78  1  0  0  0  0
 77 82  1  0  0  0  0
 77220  1  0  0  0  0
 78 79  1  0  0  0  0
 78140  1  0  0  0  0
 78221  1  0  0  0  0
 79 80  1  0  0  0  0
 80 81  1  0  0  0  0
 80 93  1  0  0  0  0
 80222  1  0  0  0  0
 81 82  1  0  0  0  0
 81 88  1  0  0  0  0
 81223  1  0  0  0  0
 82 83  1  0  0  0  0
 82224  1  0  0  0  0
 83 84  1  0  0  0  0
 84 85  2  0  0  0  0
 84 86  2  0  0  0  0
 84 87  1  0  0  0  0
 87225  1  0  0  0  0
 88 89  1  0  0  0  0
 89 90  2  0  0  0  0
 89 91  2  0  0  0  0
 89 92  1  0  0  0  0
 92226  1  0  0  0  0
 93 94  1  0  0  0  0
 94 95  1  0  0  0  0
 94 99  1  0  0  0  0
 94227  1  0  0  0  0
 95 96  1  0  0  0  0
 95134  1  0  0  0  0
 95228  1  0  0  0  0
 96 97  1  0  0  0  0
 97 98  1  0  0  0  0
 97110  1  0  0  0  0
 97229  1  0  0  0  0
 98 99  1  0  0  0  0
 98105  1  0  0  0  0
 98230  1  0  0  0  0
 99100  1  0  0  0  0
 99231  1  0  0  0  0
100101  1  0  0  0  0
101102  2  0  0  0  0
101103  2  0  0  0  0
101104  1  0  0  0  0
104232  1  0  0  0  0
105106  1  0  0  0  0
106107  2  0  0  0  0
106108  2  0  0  0  0
106109  1  0  0  0  0
109233  1  0  0  0  0
110111  1  0  0  0  0
111112  1  0  0  0  0
111117  1  0  0  0  0
111234  1  0  0  0  0
112113  1  0  0  0  0
112128  1  0  0  0  0
112235  1  0  0  0  0
113114  1  0  0  0  0
114115  1  0  0  0  0
114116  1  0  0  0  0
114236  1  0  0  0  0
116117  1  0  0  0  0
116123  1  0  0  0  0
116237  1  0  0  0  0
117118  1  0  0  0  0
117238  1  0  0  0  0
118119  1  0  0  0  0
119120  2  0  0  0  0
119121  2  0  0  0  0
119122  1  0  0  0  0
122239  1  0  0  0  0
123124  1  0  0  0  0
124125  2  0  0  0  0
124126  2  0  0  0  0
124127  1  0  0  0  0
127240  1  0  0  0  0
128129  1  0  0  0  0
128241  1  0  0  0  0
128242  1  0  0  0  0
129130  1  0  0  0  0
130131  2  0  0  0  0
130132  2  0  0  0  0
130133  1  0  0  0  0
133243  1  0  0  0  0
134135  1  0  0  0  0
134244  1  0  0  0  0
134245  1  0  0  0  0
135136  1  0  0  0  0
136137  2  0  0  0  0
136138  2  0  0  0  0
136139  1  0  0  0  0
139246  1  0  0  0  0
140141  1  0  0  0  0
140247  1  0  0  0  0
140248  1  0  0  0  0
141142  1  0  0  0  0
142143  2  0  0  0  0
142144  2  0  0  0  0
142145  1  0  0  0  0
145249  1  0  0  0  0
146147  1  0  0  0  0
146250  1  0  0  0  0
146251  1  0  0  0  0
147148  1  0  0  0  0
148149  2  0  0  0  0
148150  2  0  0  0  0
148151  1  0  0  0  0
151252  1  0  0  0  0
152153  1  0  0  0  0
152253  1  0  0  0  0
152254  1  0  0  0  0
153154  1  0  0  0  0
154155  2  0  0  0  0
154156  2  0  0  0  0
154157  1  0  0  0  0
157255  1  0  0  0  0
158159  1  0  0  0  0
158256  1  0  0  0  0
158257  1  0  0  0  0
159160  1  0  0  0  0
160161  2  0  0  0  0
160162  2  0  0  0  0
160163  1  0  0  0  0
163258  1  0  0  0  0
164165  1  0  0  0  0
164259  1  0  0  0  0
164260  1  0  0  0  0
165166  1  0  0  0  0
166167  2  0  0  0  0
166168  2  0  0  0  0
166169  1  0  0  0  0
169261  1  0  0  0  0
170171  1  0  0  0  0
171172  2  0  0  0  0
171173  2  0  0  0  0
171174  1  0  0  0  0
174262  1  0  0  0  0
175176  1  0  0  0  0
176177  2  0  0  0  0
176178  2  0  0  0  0
176179  1  0  0  0  0
179263  1  0  0  0  0
180181  1  0  0  0  0
181182  2  0  0  0  0
181183  2  0  0  0  0
181184  1  0  0  0  0
184264  1  0  0  0  0
M  END
