
 OpenBabel10072620223D

 53 56  0  0  0  0  0  0  0  0999 V2000
    1.3387   -0.0038    0.3093 C   0  0  0  0  0  0  0  0  0  0  0  0
    0.5810   -1.1691    0.3414 C   0  0  0  0  0  0  0  0  0  0  0  0
   -0.7886   -1.1285    0.0481 C   0  0  0  0  0  0  0  0  0  0  0  0
   -1.4439    0.0802   -0.2576 C   0  0  0  0  0  0  0  0  0  0  0  0
   -0.6465    1.2413   -0.2959 C   0  0  0  0  0  0  0  0  0  0  0  0
    0.7266    1.2009   -0.0190 C   0  0  0  0  0  0  0  0  0  0  0  0
   -2.8564    0.0844   -0.5540 N   0  0  0  0  0  0  0  0  0  0  0  0
   -3.7707   -0.4489    0.3526 C   0  0  0  0  0  0  0  0  0  0  0  0
   -4.8014    0.3667    0.6333 C   0  0  0  0  0  0  0  0  0  0  0  0
   -4.5760    1.5721   -0.2188 C   0  0  0  0  0  0  0  0  0  0  0  0
   -5.3582    2.5092   -0.2692 O   0  0  0  0  0  0  0  0  0  0  0  0
   -3.4069    1.3293   -0.9678 N   0  0  0  0  0  0  0  0  0  0  0  0
   -3.2170    1.7877   -2.3037 C   0  0  0  0  0  0  0  0  0  0  0  0
   -3.7477    3.0148   -2.7200 C   0  0  0  0  0  0  0  0  0  0  0  0
   -3.5382    3.4784   -4.0210 C   0  0  0  0  0  0  0  0  0  0  0  0
   -2.7937    2.7251   -4.9238 C   0  0  0  0  0  0  0  0  0  0  0  0
   -2.2714    1.4976   -4.5325 C   0  0  0  0  0  0  0  0  0  0  0  0
   -2.4795    1.0331   -3.2322 C   0  0  0  0  0  0  0  0  0  0  0  0
   -5.9149    0.1776    1.4054 N   0  0  0  0  0  0  0  0  0  0  0  0
   -5.8396   -0.7584    2.2286 N   0  0  0  0  0  0  0  0  0  0  0  0
   -7.0574   -0.9959    2.8873 C   0  0  0  0  0  0  0  0  0  0  0  0
   -8.2509   -1.2415    2.1894 C   0  0  0  0  0  0  0  0  0  0  0  0
   -9.4063   -1.6293    2.8721 C   0  0  0  0  0  0  0  0  0  0  0  0
   -9.3609   -1.7740    4.2608 C   0  0  0  0  0  0  0  0  0  0  0  0
   -8.1847   -1.5225    4.9709 C   0  0  0  0  0  0  0  0  0  0  0  0
   -7.0380   -1.1341    4.2799 C   0  0  0  0  0  0  0  0  0  0  0  0
  -10.8110   -2.2986    5.1554 S   0  0  0  0  0  0  0  0  0  0  0  0
  -10.7105   -1.7285    6.4839 O   0  0  0  0  0  0  0  0  0  0  0  0
  -11.9602   -1.9938    4.3164 O   0  0  0  0  0  0  0  0  0  0  0  0
  -10.5889   -3.8997    5.2360 N   0  0  0  0  0  0  0  0  0  0  0  0
  -11.5863   -4.7036    5.2509 C   0  0  0  0  0  0  0  0  0  0  0  0
  -12.9188   -4.4656    5.1983 N   0  0  0  0  0  0  0  0  0  0  0  0
  -11.3731   -6.0411    5.3269 N   0  0  0  0  0  0  0  0  0  0  0  0
   -3.6254   -1.7119    0.8808 O   0  0  0  0  0  0  0  0  0  0  0  0
    2.4013   -0.0401    0.5357 H   0  0  0  0  0  0  0  0  0  0  0  0
    1.0493   -2.1172    0.5945 H   0  0  0  0  0  0  0  0  0  0  0  0
   -1.3432   -2.0638    0.0429 H   0  0  0  0  0  0  0  0  0  0  0  0
   -1.0719    2.2104   -0.5415 H   0  0  0  0  0  0  0  0  0  0  0  0
    1.3173    2.1126   -0.0556 H   0  0  0  0  0  0  0  0  0  0  0  0
   -4.3160    3.6451   -2.0407 H   0  0  0  0  0  0  0  0  0  0  0  0
   -3.9570    4.4323   -4.3256 H   0  0  0  0  0  0  0  0  0  0  0  0
   -2.6242    3.0905   -5.9328 H   0  0  0  0  0  0  0  0  0  0  0  0
   -1.7047    0.8917   -5.2343 H   0  0  0  0  0  0  0  0  0  0  0  0
   -2.0703    0.0609   -2.9662 H   0  0  0  0  0  0  0  0  0  0  0  0
   -8.2749   -1.1526    1.1053 H   0  0  0  0  0  0  0  0  0  0  0  0
  -10.3191   -1.8340    2.3177 H   0  0  0  0  0  0  0  0  0  0  0  0
   -8.1501   -1.6443    6.0507 H   0  0  0  0  0  0  0  0  0  0  0  0
   -6.1151   -0.9550    4.8264 H   0  0  0  0  0  0  0  0  0  0  0  0
  -13.1572   -3.5213    4.8863 H   0  0  0  0  0  0  0  0  0  0  0  0
  -13.4246   -5.1480    4.6443 H   0  0  0  0  0  0  0  0  0  0  0  0
  -10.4033   -6.2481    5.5461 H   0  0  0  0  0  0  0  0  0  0  0  0
  -11.9950   -6.5031    5.9810 H   0  0  0  0  0  0  0  0  0  0  0  0
   -4.3842   -1.8434    1.4829 H   0  0  0  0  0  0  0  0  0  0  0  0
  1  2  2  0  0  0  0
  1  6  1  0  0  0  0
  1 35  1  0  0  0  0
  2  3  1  0  0  0  0
  2 36  1  0  0  0  0
  3  4  2  0  0  0  0
  3 37  1  0  0  0  0
  4  5  1  0  0  0  0
  4  7  1  0  0  0  0
  5  6  2  0  0  0  0
  5 38  1  0  0  0  0
  6 39  1  0  0  0  0
  7  8  1  0  0  0  0
  7 12  1  0  0  0  0
  8  9  2  0  0  0  0
  8 34  1  0  0  0  0
  9 10  1  0  0  0  0
  9 19  1  0  0  0  0
 10 11  2  0  0  0  0
 10 12  1  0  0  0  0
 12 13  1  0  0  0  0
 13 14  2  0  0  0  0
 13 18  1  0  0  0  0
 14 15  1  0  0  0  0
 14 40  1  0  0  0  0
 15 16  2  0  0  0  0
 15 41  1  0  0  0  0
 16 17  1  0  0  0  0
 16 42  1  0  0  0  0
 17 18  2  0  0  0  0
 17 43  1  0  0  0  0
 18 44  1  0  0  0  0
 19 20  2  3  0  0  0
 20 21  1  0  0  0  0
 21 22  2  0  0  0  0
 21 26  1  0  0  0  0
 22 23  1  0  0  0  0
 22 45  1  0  0  0  0
 23 24  2  0  0  0  0
 23 46  1  0  0  0  0
 24 25  1  0  0  0  0
 24 27  1  0  0  0  0
 25 26  2  0  0  0  0
 25 47  1  0  0  0  0
 26 48  1  0  0  0  0
 27 28  2  0  0  0  0
 27 29  2  0  0  0  0
 27 30  1  0  0  0  0
 30 31  2  0  0  0  0
 31 32  1  0  0  0  0
 31 33  1  0  0  0  0
 32 49  1  0  0  0  0
 32 50  1  0  0  0  0
 33 51  1  0  0  0  0
 33 52  1  0  0  0  0
 34 53  1  0  0  0  0
M  END
