
 OpenBabel10072619433D

 42 44  0  0  0  0  0  0  0  0999 V2000
    2.5843   -0.9616    0.4902 C   0  0  0  0  0  0  0  0  0  0  0  0
    1.1702   -0.4939    0.6540 C   0  0  0  0  0  0  0  0  0  0  0  0
    0.7758    0.7644    0.1934 C   0  0  0  0  0  0  0  0  0  0  0  0
   -0.5528    1.1805    0.3170 C   0  0  0  0  0  0  0  0  0  0  0  0
   -1.5088    0.3480    0.8981 C   0  0  0  0  0  0  0  0  0  0  0  0
   -1.1131   -0.9166    1.3520 C   0  0  0  0  0  0  0  0  0  0  0  0
    0.2154   -1.3344    1.2320 C   0  0  0  0  0  0  0  0  0  0  0  0
   -2.8735    0.6851    1.0220 N   0  0  0  0  0  0  0  0  0  0  0  0
   -3.4761    1.8921    0.6798 C   0  0  0  0  0  0  0  0  0  0  0  0
   -2.8723    2.9155    0.3975 O   0  0  0  0  0  0  0  0  0  0  0  0
   -4.8509    1.7464    0.6711 N   0  0  0  0  0  0  0  0  0  0  0  0
   -5.7610    2.6741    0.2264 C   0  0  0  0  0  0  0  0  0  0  0  0
   -7.0172    2.3589   -0.0030 N   0  0  0  0  0  0  0  0  0  0  0  0
   -7.7352    3.4204   -0.5182 N   0  0  0  0  0  0  0  0  0  0  0  0
   -6.9964    4.5048   -0.6328 C   0  0  0  0  0  0  0  0  0  0  0  0
   -5.3824    4.3054   -0.0815 S   0  0  0  0  0  0  0  0  0  0  0  0
   -7.4724    5.8070   -1.1874 C   0  0  0  0  0  0  0  0  0  0  0  0
   -7.1041    5.9521   -2.6665 C   0  0  0  0  0  0  0  0  0  0  0  0
   -7.6458    7.2350   -3.2496 C   0  0  0  0  0  0  0  0  0  0  0  0
   -7.0778    8.4717   -2.9100 C   0  0  0  0  0  0  0  0  0  0  0  0
   -7.6017    9.6563   -3.4292 C   0  0  0  0  0  0  0  0  0  0  0  0
   -8.6912    9.6159   -4.2971 C   0  0  0  0  0  0  0  0  0  0  0  0
   -9.2536    8.3910   -4.6521 C   0  0  0  0  0  0  0  0  0  0  0  0
   -8.7379    7.2059   -4.1263 C   0  0  0  0  0  0  0  0  0  0  0  0
    3.2497   -0.1386    0.2103 H   0  0  0  0  0  0  0  0  0  0  0  0
    2.6345   -1.7247   -0.2925 H   0  0  0  0  0  0  0  0  0  0  0  0
    2.9601   -1.3837    1.4273 H   0  0  0  0  0  0  0  0  0  0  0  0
    1.4957    1.4377   -0.2672 H   0  0  0  0  0  0  0  0  0  0  0  0
   -0.8042    2.1659   -0.0608 H   0  0  0  0  0  0  0  0  0  0  0  0
   -1.8257   -1.5998    1.8041 H   0  0  0  0  0  0  0  0  0  0  0  0
    0.5049   -2.3209    1.5885 H   0  0  0  0  0  0  0  0  0  0  0  0
   -3.4616   -0.0121    1.4517 H   0  0  0  0  0  0  0  0  0  0  0  0
   -5.2469    0.8252    0.7573 H   0  0  0  0  0  0  0  0  0  0  0  0
   -7.0487    6.6362   -0.6073 H   0  0  0  0  0  0  0  0  0  0  0  0
   -8.5621    5.8677   -1.0639 H   0  0  0  0  0  0  0  0  0  0  0  0
   -7.4833    5.0925   -3.2369 H   0  0  0  0  0  0  0  0  0  0  0  0
   -6.0137    5.9406   -2.7971 H   0  0  0  0  0  0  0  0  0  0  0  0
   -6.2258    8.5223   -2.2353 H   0  0  0  0  0  0  0  0  0  0  0  0
   -7.1600   10.6105   -3.1530 H   0  0  0  0  0  0  0  0  0  0  0  0
   -9.1020   10.5393   -4.6960 H   0  0  0  0  0  0  0  0  0  0  0  0
  -10.0988    8.3580   -5.3344 H   0  0  0  0  0  0  0  0  0  0  0  0
   -9.1976    6.2603   -4.4060 H   0  0  0  0  0  0  0  0  0  0  0  0
  1  2  1  0  0  0  0
  1 25  1  0  0  0  0
  1 26  1  0  0  0  0
  1 27  1  0  0  0  0
  2  3  2  0  0  0  0
  2  7  1  0  0  0  0
  3  4  1  0  0  0  0
  3 28  1  0  0  0  0
  4  5  2  0  0  0  0
  4 29  1  0  0  0  0
  5  6  1  0  0  0  0
  5  8  1  0  0  0  0
  6  7  2  0  0  0  0
  6 30  1  0  0  0  0
  7 31  1  0  0  0  0
  8  9  1  0  0  0  0
  8 32  1  0  0  0  0
  9 10  2  0  0  0  0
  9 11  1  0  0  0  0
 11 12  1  0  0  0  0
 11 33  1  0  0  0  0
 12 13  2  0  0  0  0
 12 16  1  0  0  0  0
 13 14  1  0  0  0  0
 14 15  2  0  0  0  0
 15 16  1  0  0  0  0
 15 17  1  0  0  0  0
 17 18  1  0  0  0  0
 17 34  1  0  0  0  0
 17 35  1  0  0  0  0
 18 19  1  0  0  0  0
 18 36  1  0  0  0  0
 18 37  1  0  0  0  0
 19 20  2  0  0  0  0
 19 24  1  0  0  0  0
 20 21  1  0  0  0  0
 20 38  1  0  0  0  0
 21 22  2  0  0  0  0
 21 39  1  0  0  0  0
 22 23  1  0  0  0  0
 22 40  1  0  0  0  0
 23 24  2  0  0  0  0
 23 41  1  0  0  0  0
 24 42  1  0  0  0  0
M  END
