
 OpenBabel10072616343D

 88 88  0  0  1  0  0  0  0  0999 V2000
    9.2396   -3.8200    5.7546 C   0  0  0  0  0  0  0  0  0  0  0  0
    8.2132   -3.3092    4.7542 C   0  0  0  0  0  0  0  0  0  0  0  0
    8.9056   -2.5776    3.5992 C   0  0  0  0  0  0  0  0  0  0  0  0
    7.9826   -2.1843    2.4372 C   0  0  0  0  0  0  0  0  0  0  0  0
    6.7183   -1.3883    2.8152 C   0  0  0  0  0  0  0  0  0  0  0  0
    6.7819    0.1196    2.6035 C   0  0  0  0  0  0  0  0  0  0  0  0
    6.3505    0.7841    1.5037 C   0  0  0  0  0  0  0  0  0  0  0  0
    5.5428    0.2522    0.3941 C   0  0  0  0  0  0  0  0  0  0  0  0
    4.3656    0.9534    0.0717 C   0  0  0  0  0  0  0  0  0  0  0  0
    3.4797    0.4602   -0.8875 C   0  0  0  0  0  0  0  0  0  0  0  0
    3.7718   -0.7295   -1.5531 C   0  0  0  0  0  0  0  0  0  0  0  0
    4.9603   -1.4104   -1.2740 C   0  0  0  0  0  0  0  0  0  0  0  0
    5.8438   -0.9143   -0.3107 C   0  0  0  0  0  0  0  0  0  0  0  0
    7.1546    0.9571    3.8258 C   0  0  3  0  0  0  0  0  0  0  0  0
    6.4239    0.5333    4.9854 O   0  0  0  0  0  0  0  0  0  0  0  0
    5.0073    0.7962    5.1036 C   0  0  3  0  0  0  0  0  0  0  0  0
    4.1162    0.1370    4.0214 C   0  0  0  0  0  0  0  0  0  0  0  0
    4.5374    0.1241    6.4328 C   0  0  0  0  0  0  0  0  0  0  0  0
    5.2623    0.5637    7.7010 C   0  0  0  0  0  0  0  0  0  0  0  0
    4.8672   -0.0476    9.0240 C   0  0  0  0  0  0  0  0  0  0  0  0
    3.9723   -0.9762    9.4186 C   0  0  0  0  0  0  0  0  0  0  0  0
    3.0196   -1.7932    8.5902 C   0  0  0  0  0  0  0  0  0  0  0  0
    3.8548   -1.2834   10.8927 C   0  0  0  0  0  0  0  0  0  0  0  0
    4.6636    2.2787    5.1158 C   0  0  0  0  0  0  0  0  0  0  0  0
    5.3789    3.2883    5.6229 C   0  0  0  0  0  0  0  0  0  0  0  0
    8.5652    0.7773    3.9755 O   0  0  0  0  0  0  0  0  0  0  0  0
    9.3319    1.7210    4.7347 C   0  0  3  0  0  0  0  0  0  0  0  0
    9.0233    3.1827    4.3683 C   0  0  0  0  0  0  0  0  0  0  0  0
    9.1509    1.4751    6.2517 C   0  0  0  0  0  0  0  0  0  0  0  0
    9.6329    0.0871    6.6955 C   0  0  0  0  0  0  0  0  0  0  0  0
    9.0969   -0.3132    8.0366 C   0  0  0  0  0  0  0  0  0  0  0  0
    9.6622   -0.1199    9.2426 C   0  0  0  0  0  0  0  0  0  0  0  0
   10.9561    0.6118    9.4714 C   0  0  0  0  0  0  0  0  0  0  0  0
    8.9821   -0.6475   10.4776 C   0  0  0  0  0  0  0  0  0  0  0  0
   10.8029    1.5270    4.3590 C   0  0  0  0  0  0  0  0  0  0  0  0
   11.2884    0.7455    3.3837 C   0  0  0  0  0  0  0  0  0  0  0  0
    8.7533   -4.3832    6.5550 H   0  0  0  0  0  0  0  0  0  0  0  0
    9.7905   -2.9933    6.2103 H   0  0  0  0  0  0  0  0  0  0  0  0
    9.9703   -4.4760    5.2762 H   0  0  0  0  0  0  0  0  0  0  0  0
    7.5238   -2.6485    5.2914 H   0  0  0  0  0  0  0  0  0  0  0  0
    7.6239   -4.1477    4.3660 H   0  0  0  0  0  0  0  0  0  0  0  0
    9.6859   -3.2323    3.1893 H   0  0  0  0  0  0  0  0  0  0  0  0
    9.4391   -1.7070    3.9853 H   0  0  0  0  0  0  0  0  0  0  0  0
    7.6482   -3.1259    1.9784 H   0  0  0  0  0  0  0  0  0  0  0  0
    8.5811   -1.6681    1.6682 H   0  0  0  0  0  0  0  0  0  0  0  0
    6.4154   -1.6044    3.8437 H   0  0  0  0  0  0  0  0  0  0  0  0
    5.8840   -1.7970    2.2305 H   0  0  0  0  0  0  0  0  0  0  0  0
    6.4248    1.8733    1.4928 H   0  0  0  0  0  0  0  0  0  0  0  0
    4.1210    1.8781    0.5930 H   0  0  0  0  0  0  0  0  0  0  0  0
    2.5632    1.0041   -1.1101 H   0  0  0  0  0  0  0  0  0  0  0  0
    3.0829   -1.1286   -2.2928 H   0  0  0  0  0  0  0  0  0  0  0  0
    5.1923   -2.3333   -1.8008 H   0  0  0  0  0  0  0  0  0  0  0  0
    6.7558   -1.4673   -0.0985 H   0  0  0  0  0  0  0  0  0  0  0  0
    6.9414    2.0104    3.6303 H   0  0  0  0  0  0  0  0  0  0  0  0
    4.3105   -0.9321    3.9012 H   0  0  0  0  0  0  0  0  0  0  0  0
    4.2144    0.6208    3.0507 H   0  0  0  0  0  0  0  0  0  0  0  0
    3.0523    0.2305    4.2730 H   0  0  0  0  0  0  0  0  0  0  0  0
    4.7050   -0.9545    6.3243 H   0  0  0  0  0  0  0  0  0  0  0  0
    3.4577    0.2878    6.5573 H   0  0  0  0  0  0  0  0  0  0  0  0
    5.1436    1.6451    7.8261 H   0  0  0  0  0  0  0  0  0  0  0  0
    6.3338    0.3852    7.5763 H   0  0  0  0  0  0  0  0  0  0  0  0
    5.4586    0.4070    9.8246 H   0  0  0  0  0  0  0  0  0  0  0  0
    3.2028   -1.7498    7.5212 H   0  0  0  0  0  0  0  0  0  0  0  0
    1.9885   -1.4650    8.7642 H   0  0  0  0  0  0  0  0  0  0  0  0
    3.0887   -2.8506    8.8757 H   0  0  0  0  0  0  0  0  0  0  0  0
    4.4544   -0.6087   11.5120 H   0  0  0  0  0  0  0  0  0  0  0  0
    4.1851   -2.3069   11.0918 H   0  0  0  0  0  0  0  0  0  0  0  0
    2.8139   -1.1849   11.2146 H   0  0  0  0  0  0  0  0  0  0  0  0
    3.6908    2.5309    4.6877 H   0  0  0  0  0  0  0  0  0  0  0  0
    6.3238    3.1192    6.1285 H   0  0  0  0  0  0  0  0  0  0  0  0
    4.9945    4.3035    5.5751 H   0  0  0  0  0  0  0  0  0  0  0  0
    8.0388    3.4947    4.7204 H   0  0  0  0  0  0  0  0  0  0  0  0
    9.0380    3.3216    3.2802 H   0  0  0  0  0  0  0  0  0  0  0  0
    9.7467    3.8796    4.8086 H   0  0  0  0  0  0  0  0  0  0  0  0
    8.0986    1.6029    6.5216 H   0  0  0  0  0  0  0  0  0  0  0  0
    9.6954    2.2351    6.8282 H   0  0  0  0  0  0  0  0  0  0  0  0
   10.7280    0.0491    6.6959 H   0  0  0  0  0  0  0  0  0  0  0  0
    9.3032   -0.6754    5.9852 H   0  0  0  0  0  0  0  0  0  0  0  0
    8.1510   -0.8511    7.9847 H   0  0  0  0  0  0  0  0  0  0  0  0
   11.3221    1.1368    8.5829 H   0  0  0  0  0  0  0  0  0  0  0  0
   11.7317   -0.0927    9.7872 H   0  0  0  0  0  0  0  0  0  0  0  0
   10.8326    1.3667   10.2563 H   0  0  0  0  0  0  0  0  0  0  0  0
    8.0286   -1.1394   10.2545 H   0  0  0  0  0  0  0  0  0  0  0  0
    8.7736    0.1658   11.1791 H   0  0  0  0  0  0  0  0  0  0  0  0
    9.6172   -1.3884   10.9706 H   0  0  0  0  0  0  0  0  0  0  0  0
   11.5195    2.0980    4.9477 H   0  0  0  0  0  0  0  0  0  0  0  0
   10.6280    0.1535    2.7575 H   0  0  0  0  0  0  0  0  0  0  0  0
   12.3548    0.6881    3.1898 H   0  0  0  0  0  0  0  0  0  0  0  0
  1  2  1  0  0  0  0
  1 37  1  0  0  0  0
  1 38  1  0  0  0  0
  1 39  1  0  0  0  0
  2  3  1  0  0  0  0
  2 40  1  0  0  0  0
  2 41  1  0  0  0  0
  3  4  1  0  0  0  0
  3 42  1  0  0  0  0
  3 43  1  0  0  0  0
  4  5  1  0  0  0  0
  4 44  1  0  0  0  0
  4 45  1  0  0  0  0
  5  6  1  0  0  0  0
  5 46  1  0  0  0  0
  5 47  1  0  0  0  0
  6  7  2  3  0  0  0
  6 14  1  0  0  0  0
  7  8  1  0  0  0  0
  7 48  1  0  0  0  0
  8  9  2  0  0  0  0
  8 13  1  0  0  0  0
  9 10  1  0  0  0  0
  9 49  1  0  0  0  0
 10 11  2  0  0  0  0
 10 50  1  0  0  0  0
 11 12  1  0  0  0  0
 11 51  1  0  0  0  0
 12 13  2  0  0  0  0
 12 52  1  0  0  0  0
 13 53  1  0  0  0  0
 14 15  1  0  0  0  0
 14 26  1  0  0  0  0
 14 54  1  0  0  0  0
 15 16  1  0  0  0  0
 16 17  1  0  0  0  0
 16 18  1  0  0  0  0
 16 24  1  0  0  0  0
 17 55  1  0  0  0  0
 17 56  1  0  0  0  0
 17 57  1  0  0  0  0
 18 19  1  0  0  0  0
 18 58  1  0  0  0  0
 18 59  1  0  0  0  0
 19 20  1  0  0  0  0
 19 60  1  0  0  0  0
 19 61  1  0  0  0  0
 20 21  2  0  0  0  0
 20 62  1  0  0  0  0
 21 22  1  0  0  0  0
 21 23  1  0  0  0  0
 22 63  1  0  0  0  0
 22 64  1  0  0  0  0
 22 65  1  0  0  0  0
 23 66  1  0  0  0  0
 23 67  1  0  0  0  0
 23 68  1  0  0  0  0
 24 25  2  0  0  0  0
 24 69  1  0  0  0  0
 25 70  1  0  0  0  0
 25 71  1  0  0  0  0
 26 27  1  0  0  0  0
 27 28  1  0  0  0  0
 27 29  1  0  0  0  0
 27 35  1  0  0  0  0
 28 72  1  0  0  0  0
 28 73  1  0  0  0  0
 28 74  1  0  0  0  0
 29 30  1  0  0  0  0
 29 75  1  0  0  0  0
 29 76  1  0  0  0  0
 30 31  1  0  0  0  0
 30 77  1  0  0  0  0
 30 78  1  0  0  0  0
 31 32  2  0  0  0  0
 31 79  1  0  0  0  0
 32 33  1  0  0  0  0
 32 34  1  0  0  0  0
 33 80  1  0  0  0  0
 33 81  1  0  0  0  0
 33 82  1  0  0  0  0
 34 83  1  0  0  0  0
 34 84  1  0  0  0  0
 34 85  1  0  0  0  0
 35 36  2  0  0  0  0
 35 86  1  0  0  0  0
 36 87  1  0  0  0  0
 36 88  1  0  0  0  0
M  END
