
 OpenBabel10072619483D

 28 28  0  0  1  0  0  0  0  0999 V2000
    0.8560   -0.1019    0.2241 C   0  0  0  0  0  0  0  0  0  0  0  0
    2.3719   -0.0403    0.1340 C   0  0  0  0  0  0  0  0  0  0  0  0
    3.0303   -0.4915    1.4378 C   0  0  0  0  0  0  0  0  0  0  0  0
    4.5533   -0.4268    1.3338 C   0  0  0  0  0  0  0  0  0  0  0  0
    5.2255   -0.8891    2.6226 C   0  0  0  0  0  0  0  0  0  0  0  0
    6.7266   -0.8431    2.4752 C   0  0  0  0  0  0  0  0  0  0  0  0
    7.3512    0.1236    2.0598 O   0  0  0  0  0  0  0  0  0  0  0  0
    7.2785   -2.0197    2.8726 O   0  0  0  0  0  0  0  0  0  0  0  0
    8.7042   -2.1143    2.7280 C   0  0  0  0  0  0  0  0  0  0  0  0
    9.3863   -1.5715    3.9397 C   0  0  3  0  0  0  0  0  0  0  0  0
   10.7108   -2.1250    4.3956 C   0  0  0  0  0  0  0  0  0  0  0  0
    9.4794   -2.4814    5.0428 O   0  0  0  0  0  0  0  0  0  0  0  0
    0.4078    0.2288   -0.7180 H   0  0  0  0  0  0  0  0  0  0  0  0
    0.4847    0.5473    1.0233 H   0  0  0  0  0  0  0  0  0  0  0  0
    0.5145   -1.1227    0.4228 H   0  0  0  0  0  0  0  0  0  0  0  0
    2.6761    0.9869   -0.1002 H   0  0  0  0  0  0  0  0  0  0  0  0
    2.7098   -0.6760   -0.6931 H   0  0  0  0  0  0  0  0  0  0  0  0
    2.7207   -1.5176    1.6716 H   0  0  0  0  0  0  0  0  0  0  0  0
    2.6907    0.1460    2.2633 H   0  0  0  0  0  0  0  0  0  0  0  0
    4.8640    0.5992    1.0999 H   0  0  0  0  0  0  0  0  0  0  0  0
    4.8948   -1.0539    0.5006 H   0  0  0  0  0  0  0  0  0  0  0  0
    4.9111   -1.9135    2.8547 H   0  0  0  0  0  0  0  0  0  0  0  0
    4.9464   -0.2563    3.4717 H   0  0  0  0  0  0  0  0  0  0  0  0
    9.0481   -1.5989    1.8233 H   0  0  0  0  0  0  0  0  0  0  0  0
    8.9372   -3.1762    2.5903 H   0  0  0  0  0  0  0  0  0  0  0  0
    9.1612   -0.5335    4.1426 H   0  0  0  0  0  0  0  0  0  0  0  0
   11.3849   -1.4704    4.9340 H   0  0  0  0  0  0  0  0  0  0  0  0
   11.1983   -2.8831    3.7959 H   0  0  0  0  0  0  0  0  0  0  0  0
  1  2  1  0  0  0  0
  1 13  1  0  0  0  0
  1 14  1  0  0  0  0
  1 15  1  0  0  0  0
  2  3  1  0  0  0  0
  2 16  1  0  0  0  0
  2 17  1  0  0  0  0
  3  4  1  0  0  0  0
  3 18  1  0  0  0  0
  3 19  1  0  0  0  0
  4  5  1  0  0  0  0
  4 20  1  0  0  0  0
  4 21  1  0  0  0  0
  5  6  1  0  0  0  0
  5 22  1  0  0  0  0
  5 23  1  0  0  0  0
  6  7  2  0  0  0  0
  6  8  1  0  0  0  0
  8  9  1  0  0  0  0
  9 10  1  0  0  0  0
  9 24  1  0  0  0  0
  9 25  1  0  0  0  0
 10 11  1  0  0  0  0
 10 12  1  0  0  0  0
 10 26  1  0  0  0  0
 11 12  1  0  0  0  0
 11 27  1  0  0  0  0
 11 28  1  0  0  0  0
M  END
