
 OpenBabel10072616403D

126133  0  0  0  0  0  0  0  0999 V2000
    0.8256    2.3849    2.7382 C   0  0  0  0  0  0  0  0  0  0  0  0
   -0.0123    3.3215    1.9137 C   0  0  0  0  0  0  0  0  0  0  0  0
    0.1771    3.5103    0.5403 C   0  0  0  0  0  0  0  0  0  0  0  0
   -0.6596    4.3373   -0.2140 C   0  0  0  0  0  0  0  0  0  0  0  0
   -1.6977    5.0219    0.4100 C   0  0  0  0  0  0  0  0  0  0  0  0
   -1.9034    4.8380    1.7855 C   0  0  0  0  0  0  0  0  0  0  0  0
   -1.0648    4.0071    2.5292 C   0  0  0  0  0  0  0  0  0  0  0  0
   -2.6442    5.8958   -0.3241 C   0  0  0  0  0  0  0  0  0  0  0  0
   -3.7710    6.0527    0.1605 O   0  0  0  0  0  0  0  0  0  0  0  0
   -2.2309    6.4926   -1.5069 N   0  0  0  0  0  0  0  0  0  0  0  0
   -3.0113    7.4589   -2.1903 C   0  0  0  0  0  0  0  0  0  0  0  0
   -3.1490    7.5046   -3.6308 C   0  0  0  0  0  0  0  0  0  0  0  0
   -2.6561    6.5475   -4.6034 C   0  0  0  0  0  0  0  0  0  0  0  0
   -2.8822    6.6591   -5.9865 C   0  0  0  0  0  0  0  0  0  0  0  0
   -3.6511    7.7045   -6.4552 C   0  0  0  0  0  0  0  0  0  0  0  0
   -4.1908    8.6301   -5.5639 C   0  0  0  0  0  0  0  0  0  0  0  0
   -3.9306    8.5876   -4.1667 C   0  0  0  0  0  0  0  0  0  0  0  0
   -4.4620    9.5717   -3.2779 C   0  0  0  0  0  0  0  0  0  0  0  0
   -4.3234    9.4704   -1.8993 C   0  0  0  0  0  0  0  0  0  0  0  0
   -3.6181    8.4198   -1.3700 C   0  0  0  0  0  0  0  0  0  0  0  0
   -5.2697   11.0777   -3.8149 S   0  0  0  0  0  0  0  0  0  0  0  0
   -5.3722   11.9763   -2.6898 O   0  0  0  0  0  0  0  0  0  0  0  0
   -4.6535   11.5120   -5.0504 O   0  0  0  0  0  0  0  0  0  0  0  0
   -6.7772   10.6025   -4.1277 O   0  0  0  0  0  0  0  0  0  0  0  0
   -3.9534    7.8317   -8.2012 S   0  0  0  0  0  0  0  0  0  0  0  0
   -2.8004    8.4933   -8.7612 O   0  0  0  0  0  0  0  0  0  0  0  0
   -4.4061    6.5341   -8.6601 O   0  0  0  0  0  0  0  0  0  0  0  0
   -5.1785    8.8692   -8.3529 O   0  0  0  0  0  0  0  0  0  0  0  0
   -1.6856    5.1378   -4.1287 S   0  0  0  0  0  0  0  0  0  0  0  0
   -0.5335    5.6449   -3.3973 O   0  0  0  0  0  0  0  0  0  0  0  0
   -2.5848    4.1617   -3.5764 O   0  0  0  0  0  0  0  0  0  0  0  0
   -1.0485    4.5293   -5.4777 O   0  0  0  0  0  0  0  0  0  0  0  0
    1.0458    2.6815   -0.1698 N   0  0  0  0  0  0  0  0  0  0  0  0
    2.3876    2.9248   -0.3729 C   0  0  0  0  0  0  0  0  0  0  0  0
    3.0167    3.8778    0.0866 O   0  0  0  0  0  0  0  0  0  0  0  0
    3.0740    1.8969   -1.2071 C   0  0  0  0  0  0  0  0  0  0  0  0
    2.3241    1.1916   -2.1513 C   0  0  0  0  0  0  0  0  0  0  0  0
    2.8524    0.1074   -2.8344 C   0  0  0  0  0  0  0  0  0  0  0  0
    4.2069   -0.1844   -2.6761 C   0  0  0  0  0  0  0  0  0  0  0  0
    4.9969    0.5743   -1.7990 C   0  0  0  0  0  0  0  0  0  0  0  0
    4.4300    1.6115   -1.0513 C   0  0  0  0  0  0  0  0  0  0  0  0
    2.0533   -0.7171   -3.6441 N   0  0  0  0  0  0  0  0  0  0  0  0
    0.6714   -0.7095   -3.7032 C   0  0  0  0  0  0  0  0  0  0  0  0
   -0.0690    0.0610   -3.0991 O   0  0  0  0  0  0  0  0  0  0  0  0
    0.2063   -1.7655   -4.4822 N   0  0  0  0  0  0  0  0  0  0  0  0
   -1.1924   -1.9514   -4.5084 C   0  0  0  0  0  0  0  0  0  0  0  0
   -1.7662   -2.9094   -3.6677 C   0  0  0  0  0  0  0  0  0  0  0  0
   -3.1529   -3.0262   -3.5930 C   0  0  0  0  0  0  0  0  0  0  0  0
   -3.9570   -2.2496   -4.4231 C   0  0  0  0  0  0  0  0  0  0  0  0
   -3.3695   -1.3431   -5.3146 C   0  0  0  0  0  0  0  0  0  0  0  0
   -1.9843   -1.1660   -5.3445 C   0  0  0  0  0  0  0  0  0  0  0  0
   -4.2153   -0.6231   -6.2938 C   0  0  0  0  0  0  0  0  0  0  0  0
   -3.7979   -0.4615   -7.4264 O   0  0  0  0  0  0  0  0  0  0  0  0
   -5.4132   -0.1613   -5.7734 N   0  0  0  0  0  0  0  0  0  0  0  0
   -6.3293    0.6000   -6.5231 C   0  0  0  0  0  0  0  0  0  0  0  0
   -6.7655    0.2559   -7.8111 C   0  0  0  0  0  0  0  0  0  0  0  0
   -7.5628    1.1674   -8.5137 C   0  0  0  0  0  0  0  0  0  0  0  0
   -7.9845    2.3557   -7.9252 C   0  0  0  0  0  0  0  0  0  0  0  0
   -7.6299    2.6581   -6.6081 C   0  0  0  0  0  0  0  0  0  0  0  0
   -6.8021    1.7706   -5.9096 C   0  0  0  0  0  0  0  0  0  0  0  0
   -8.1357    3.9512   -6.0435 C   0  0  0  0  0  0  0  0  0  0  0  0
   -8.7245    4.7395   -6.7664 O   0  0  0  0  0  0  0  0  0  0  0  0
   -7.9654    4.1397   -4.6766 N   0  0  0  0  0  0  0  0  0  0  0  0
   -8.5346    5.2439   -4.0072 C   0  0  0  0  0  0  0  0  0  0  0  0
   -9.3703    5.0743   -2.8450 C   0  0  0  0  0  0  0  0  0  0  0  0
   -9.8618    3.8308   -2.2723 C   0  0  0  0  0  0  0  0  0  0  0  0
  -10.7229    3.7766   -1.1682 C   0  0  0  0  0  0  0  0  0  0  0  0
  -11.1613    4.9659   -0.6282 C   0  0  0  0  0  0  0  0  0  0  0  0
  -10.7517    6.1827   -1.1619 C   0  0  0  0  0  0  0  0  0  0  0  0
   -9.8399    6.2783   -2.2332 C   0  0  0  0  0  0  0  0  0  0  0  0
   -9.4362    7.5430   -2.7521 C   0  0  0  0  0  0  0  0  0  0  0  0
   -8.6945    7.6598   -3.9203 C   0  0  0  0  0  0  0  0  0  0  0  0
   -8.2492    6.5154   -4.5406 C   0  0  0  0  0  0  0  0  0  0  0  0
   -9.7202    9.0869   -1.9074 S   0  0  0  0  0  0  0  0  0  0  0  0
   -8.5742    9.9564   -2.1688 O   0  0  0  0  0  0  0  0  0  0  0  0
  -11.0636    9.5063   -2.1855 O   0  0  0  0  0  0  0  0  0  0  0  0
   -9.6069    8.7568   -0.3350 O   0  0  0  0  0  0  0  0  0  0  0  0
  -12.2983    4.9813    0.7231 S   0  0  0  0  0  0  0  0  0  0  0  0
  -13.0363    3.7408    0.6882 O   0  0  0  0  0  0  0  0  0  0  0  0
  -11.5647    5.4204    1.8887 O   0  0  0  0  0  0  0  0  0  0  0  0
  -13.3628    6.1264    0.3237 O   0  0  0  0  0  0  0  0  0  0  0  0
   -9.5469    2.2531   -3.0348 S   0  0  0  0  0  0  0  0  0  0  0  0
  -10.2940    2.2143   -4.2736 O   0  0  0  0  0  0  0  0  0  0  0  0
   -8.1198    2.0362   -2.9867 O   0  0  0  0  0  0  0  0  0  0  0  0
  -10.2308    1.1251   -2.1120 O   0  0  0  0  0  0  0  0  0  0  0  0
   -6.4554   -1.0376   -8.5075 C   0  0  0  0  0  0  0  0  0  0  0  0
    1.7569    2.0931    2.2402 H   0  0  0  0  0  0  0  0  0  0  0  0
    0.2528    1.4764    2.9482 H   0  0  0  0  0  0  0  0  0  0  0  0
    1.1048    2.8635    3.6852 H   0  0  0  0  0  0  0  0  0  0  0  0
   -0.5206    4.3710   -1.2871 H   0  0  0  0  0  0  0  0  0  0  0  0
   -2.7384    5.3356    2.2773 H   0  0  0  0  0  0  0  0  0  0  0  0
   -1.2699    3.8565    3.5849 H   0  0  0  0  0  0  0  0  0  0  0  0
   -1.3490    6.2072   -1.9226 H   0  0  0  0  0  0  0  0  0  0  0  0
   -2.4972    5.9281   -6.7002 H   0  0  0  0  0  0  0  0  0  0  0  0
   -4.8248    9.4091   -5.9841 H   0  0  0  0  0  0  0  0  0  0  0  0
   -4.7316   10.2094   -1.2130 H   0  0  0  0  0  0  0  0  0  0  0  0
   -3.4876    8.3849   -0.2910 H   0  0  0  0  0  0  0  0  0  0  0  0
   -7.3218   10.7090   -3.3054 H   0  0  0  0  0  0  0  0  0  0  0  0
   -4.8273    9.6841   -8.7712 H   0  0  0  0  0  0  0  0  0  0  0  0
   -0.0729    4.5051   -5.3782 H   0  0  0  0  0  0  0  0  0  0  0  0
    0.6224    1.8265   -0.5039 H   0  0  0  0  0  0  0  0  0  0  0  0
    1.3076    1.5093   -2.3396 H   0  0  0  0  0  0  0  0  0  0  0  0
    4.6665   -1.0105   -3.2120 H   0  0  0  0  0  0  0  0  0  0  0  0
    6.0519    0.3353   -1.6781 H   0  0  0  0  0  0  0  0  0  0  0  0
    5.0351    2.1703   -0.3393 H   0  0  0  0  0  0  0  0  0  0  0  0
    2.5222   -1.4116   -4.2015 H   0  0  0  0  0  0  0  0  0  0  0  0
    0.7221   -2.6051   -4.2557 H   0  0  0  0  0  0  0  0  0  0  0  0
   -1.1444   -3.5139   -3.0126 H   0  0  0  0  0  0  0  0  0  0  0  0
   -3.6048   -3.7329   -2.9028 H   0  0  0  0  0  0  0  0  0  0  0  0
   -5.0360   -2.3757   -4.3898 H   0  0  0  0  0  0  0  0  0  0  0  0
   -1.5375   -0.4299   -6.0099 H   0  0  0  0  0  0  0  0  0  0  0  0
   -5.3989    0.0028   -4.7741 H   0  0  0  0  0  0  0  0  0  0  0  0
   -7.8619    0.9466   -9.5351 H   0  0  0  0  0  0  0  0  0  0  0  0
   -8.5920    3.0490   -8.4995 H   0  0  0  0  0  0  0  0  0  0  0  0
   -6.4384    2.0081   -4.9129 H   0  0  0  0  0  0  0  0  0  0  0  0
   -7.7117    3.3223   -4.1389 H   0  0  0  0  0  0  0  0  0  0  0  0
  -11.0894    2.8322   -0.7685 H   0  0  0  0  0  0  0  0  0  0  0  0
  -11.2089    7.0747   -0.7354 H   0  0  0  0  0  0  0  0  0  0  0  0
   -8.4457    8.6342   -4.3431 H   0  0  0  0  0  0  0  0  0  0  0  0
   -7.6807    6.6176   -5.4626 H   0  0  0  0  0  0  0  0  0  0  0  0
   -9.0349    9.4226    0.0928 H   0  0  0  0  0  0  0  0  0  0  0  0
  -14.2361    5.6988    0.2100 H   0  0  0  0  0  0  0  0  0  0  0  0
  -10.9170    0.6747   -2.6522 H   0  0  0  0  0  0  0  0  0  0  0  0
   -6.0619   -1.8023   -7.8343 H   0  0  0  0  0  0  0  0  0  0  0  0
   -5.7450   -0.8615   -9.3209 H   0  0  0  0  0  0  0  0  0  0  0  0
   -7.3801   -1.4501   -8.9286 H   0  0  0  0  0  0  0  0  0  0  0  0
  1  2  1  0  0  0  0
  1 87  1  0  0  0  0
  1 88  1  0  0  0  0
  1 89  1  0  0  0  0
  2  3  2  0  0  0  0
  2  7  1  0  0  0  0
  3  4  1  0  0  0  0
  3 33  1  0  0  0  0
  4  5  2  0  0  0  0
  4 90  1  0  0  0  0
  5  6  1  0  0  0  0
  5  8  1  0  0  0  0
  6  7  2  0  0  0  0
  6 91  1  0  0  0  0
  7 92  1  0  0  0  0
  8  9  2  0  0  0  0
  8 10  1  0  0  0  0
 10 11  1  0  0  0  0
 10 93  1  0  0  0  0
 11 12  2  0  0  0  0
 11 20  1  0  0  0  0
 12 13  1  0  0  0  0
 12 17  1  0  0  0  0
 13 14  2  0  0  0  0
 13 29  1  0  0  0  0
 14 15  1  0  0  0  0
 14 94  1  0  0  0  0
 15 16  2  0  0  0  0
 15 25  1  0  0  0  0
 16 17  1  0  0  0  0
 16 95  1  0  0  0  0
 17 18  2  0  0  0  0
 18 19  1  0  0  0  0
 18 21  1  0  0  0  0
 19 20  2  0  0  0  0
 19 96  1  0  0  0  0
 20 97  1  0  0  0  0
 21 22  2  0  0  0  0
 21 23  2  0  0  0  0
 21 24  1  0  0  0  0
 24 98  1  0  0  0  0
 25 26  2  0  0  0  0
 25 27  2  0  0  0  0
 25 28  1  0  0  0  0
 28 99  1  0  0  0  0
 29 30  2  0  0  0  0
 29 31  2  0  0  0  0
 29 32  1  0  0  0  0
 32100  1  0  0  0  0
 33 34  1  0  0  0  0
 33101  1  0  0  0  0
 34 35  2  0  0  0  0
 34 36  1  0  0  0  0
 36 37  2  0  0  0  0
 36 41  1  0  0  0  0
 37 38  1  0  0  0  0
 37102  1  0  0  0  0
 38 39  2  0  0  0  0
 38 42  1  0  0  0  0
 39 40  1  0  0  0  0
 39103  1  0  0  0  0
 40 41  2  0  0  0  0
 40104  1  0  0  0  0
 41105  1  0  0  0  0
 42 43  1  0  0  0  0
 42106  1  0  0  0  0
 43 44  2  0  0  0  0
 43 45  1  0  0  0  0
 45 46  1  0  0  0  0
 45107  1  0  0  0  0
 46 47  2  0  0  0  0
 46 51  1  0  0  0  0
 47 48  1  0  0  0  0
 47108  1  0  0  0  0
 48 49  2  0  0  0  0
 48109  1  0  0  0  0
 49 50  1  0  0  0  0
 49110  1  0  0  0  0
 50 51  2  0  0  0  0
 50 52  1  0  0  0  0
 51111  1  0  0  0  0
 52 53  2  0  0  0  0
 52 54  1  0  0  0  0
 54 55  1  0  0  0  0
 54112  1  0  0  0  0
 55 56  2  0  0  0  0
 55 60  1  0  0  0  0
 56 57  1  0  0  0  0
 56 86  1  0  0  0  0
 57 58  2  0  0  0  0
 57113  1  0  0  0  0
 58 59  1  0  0  0  0
 58114  1  0  0  0  0
 59 60  2  0  0  0  0
 59 61  1  0  0  0  0
 60115  1  0  0  0  0
 61 62  2  0  0  0  0
 61 63  1  0  0  0  0
 63 64  1  0  0  0  0
 63116  1  0  0  0  0
 64 65  2  0  0  0  0
 64 73  1  0  0  0  0
 65 66  1  0  0  0  0
 65 70  1  0  0  0  0
 66 67  2  0  0  0  0
 66 82  1  0  0  0  0
 67 68  1  0  0  0  0
 67117  1  0  0  0  0
 68 69  2  0  0  0  0
 68 78  1  0  0  0  0
 69 70  1  0  0  0  0
 69118  1  0  0  0  0
 70 71  2  0  0  0  0
 71 72  1  0  0  0  0
 71 74  1  0  0  0  0
 72 73  2  0  0  0  0
 72119  1  0  0  0  0
 73120  1  0  0  0  0
 74 75  2  0  0  0  0
 74 76  2  0  0  0  0
 74 77  1  0  0  0  0
 77121  1  0  0  0  0
 78 79  2  0  0  0  0
 78 80  2  0  0  0  0
 78 81  1  0  0  0  0
 81122  1  0  0  0  0
 82 83  2  0  0  0  0
 82 84  2  0  0  0  0
 82 85  1  0  0  0  0
 85123  1  0  0  0  0
 86124  1  0  0  0  0
 86125  1  0  0  0  0
 86126  1  0  0  0  0
M  END
