
 OpenBabel10072619573D

 38 37  0  0  0  0  0  0  0  0999 V2000
    4.2782    0.7748   -1.8851 C   0  0  0  0  0  0  0  0  0  0  0  0
    4.9091   -0.1349   -0.8436 C   0  0  0  0  0  0  0  0  0  0  0  0
    5.3991    0.6743    0.2815 N   0  0  0  0  0  0  0  0  0  0  0  0
    6.7720    1.1995    0.2662 C   0  0  0  0  0  0  0  0  0  0  0  0
    7.7073    0.1919    0.9145 C   0  0  0  0  0  0  0  0  0  0  0  0
    4.5163    0.9582    1.4221 C   0  0  0  0  0  0  0  0  0  0  0  0
    3.3294    0.5041    1.4354 O   0  0  0  0  0  0  0  0  0  0  0  0
    5.0229    1.7949    2.5855 C   0  0  0  0  0  0  0  0  0  0  0  0
    4.1389    2.3986    3.4250 C   0  0  0  0  0  0  0  0  0  0  0  0
    2.6445    2.2365    3.1995 C   0  0  0  0  0  0  0  0  0  0  0  0
    4.6122    3.1803    4.5119 O   0  0  0  0  0  0  0  0  0  0  0  0
    3.4880    3.9480    5.5794 P   0  0  0  0  0  0  0  0  0  0  0  0
    3.4880    2.6910    6.4834 O   0  0  0  0  0  0  0  0  0  0  0  0
    4.6268    5.2187    5.8648 O   0  0  0  0  0  0  0  0  0  0  0  0
    5.4471    4.8791    6.9730 C   0  0  0  0  0  0  0  0  0  0  0  0
    2.3638    4.7158    6.6469 O   0  0  0  0  0  0  0  0  0  0  0  0
    1.7264    5.7894    5.9706 C   0  0  0  0  0  0  0  0  0  0  0  0
    6.4190    1.9464    2.7962 O   0  0  0  0  0  0  0  0  0  0  0  0
    3.9215    0.1858   -2.7041 H   0  0  0  0  0  0  0  0  0  0  0  0
    5.0084    1.4724   -2.2387 H   0  0  0  0  0  0  0  0  0  0  0  0
    3.4604    1.3067   -1.4455 H   0  0  0  0  0  0  0  0  0  0  0  0
    5.7269   -0.6668   -1.2832 H   0  0  0  0  0  0  0  0  0  0  0  0
    4.1789   -0.8325   -0.4900 H   0  0  0  0  0  0  0  0  0  0  0  0
    6.8077    2.1204    0.8098 H   0  0  0  0  0  0  0  0  0  0  0  0
    7.0773    1.3703   -0.7450 H   0  0  0  0  0  0  0  0  0  0  0  0
    7.4020    0.0212    1.9257 H   0  0  0  0  0  0  0  0  0  0  0  0
    8.7066    0.5742    0.9033 H   0  0  0  0  0  0  0  0  0  0  0  0
    7.6717   -0.7290    0.3708 H   0  0  0  0  0  0  0  0  0  0  0  0
    2.4782    1.6193    2.3414 H   0  0  0  0  0  0  0  0  0  0  0  0
    2.2017    3.1972    3.0391 H   0  0  0  0  0  0  0  0  0  0  0  0
    2.2017    1.7787    4.0593 H   0  0  0  0  0  0  0  0  0  0  0  0
    6.1515    5.6650    7.1495 H   0  0  0  0  0  0  0  0  0  0  0  0
    5.9718    3.9705    6.7631 H   0  0  0  0  0  0  0  0  0  0  0  0
    4.8363    4.7459    7.8413 H   0  0  0  0  0  0  0  0  0  0  0  0
    1.0311    6.2643    6.6309 H   0  0  0  0  0  0  0  0  0  0  0  0
    1.2057    5.4130    5.1150 H   0  0  0  0  0  0  0  0  0  0  0  0
    2.4621    6.5000    5.6564 H   0  0  0  0  0  0  0  0  0  0  0  0
    7.0279    1.5306    2.2180 H   0  0  0  0  0  0  0  0  0  0  0  0
  1  2  1  0  0  0  0
  1 19  1  0  0  0  0
  1 20  1  0  0  0  0
  1 21  1  0  0  0  0
  2  3  1  0  0  0  0
  2 22  1  0  0  0  0
  2 23  1  0  0  0  0
  3  4  1  0  0  0  0
  3  6  1  0  0  0  0
  4  5  1  0  0  0  0
  4 24  1  0  0  0  0
  4 25  1  0  0  0  0
  5 26  1  0  0  0  0
  5 27  1  0  0  0  0
  5 28  1  0  0  0  0
  6  7  2  0  0  0  0
  6  8  1  0  0  0  0
  8  9  2  0  0  0  0
  8 18  1  0  0  0  0
  9 10  1  0  0  0  0
  9 11  1  0  0  0  0
 10 29  1  0  0  0  0
 10 30  1  0  0  0  0
 10 31  1  0  0  0  0
 11 12  1  0  0  0  0
 12 13  2  0  0  0  0
 12 14  1  0  0  0  0
 12 16  1  0  0  0  0
 14 15  1  0  0  0  0
 15 32  1  0  0  0  0
 15 33  1  0  0  0  0
 15 34  1  0  0  0  0
 16 17  1  0  0  0  0
 17 35  1  0  0  0  0
 17 36  1  0  0  0  0
 17 37  1  0  0  0  0
 18 38  1  0  0  0  0
M  END
