
 OpenBabel10072619523D

 75 74  0  0  1  0  0  0  0  0999 V2000
    0.7663   -0.4723    0.1829 C   0  0  0  0  0  0  0  0  0  0  0  0
    2.2840   -0.3849    0.1664 C   0  0  0  0  0  0  0  0  0  0  0  0
    2.7914    0.7438    1.0642 C   0  0  0  0  0  0  0  0  0  0  0  0
    4.3188    0.8258    1.0418 C   0  0  0  0  0  0  0  0  0  0  0  0
    4.8344    1.9538    1.9380 C   0  0  0  0  0  0  0  0  0  0  0  0
    6.3623    2.0291    1.9095 C   0  0  0  0  0  0  0  0  0  0  0  0
    6.8868    3.1537    2.8048 C   0  0  0  0  0  0  0  0  0  0  0  0
    8.4150    3.2201    2.7721 C   0  0  0  0  0  0  0  0  0  0  0  0
    8.9501    4.3378    3.6695 C   0  0  0  0  0  0  0  0  0  0  0  0
   10.4784    4.3926    3.6296 C   0  0  0  0  0  0  0  0  0  0  0  0
   11.0260    5.5030    4.5286 C   0  0  0  0  0  0  0  0  0  0  0  0
   12.5536    5.5536    4.4704 C   0  0  0  0  0  0  0  0  0  0  0  0
   13.1178    6.6623    5.3608 C   0  0  0  0  0  0  0  0  0  0  0  0
   14.6438    6.7125    5.2700 C   0  0  0  0  0  0  0  0  0  0  0  0
   15.2270    7.8286    6.1384 C   0  0  0  0  0  0  0  0  0  0  0  0
   16.7514    7.8825    6.0062 C   0  0  0  0  0  0  0  0  0  0  0  0
   17.3505    9.0135    6.8491 C   0  0  0  0  0  0  0  0  0  0  0  0
   18.8954    9.0437    6.8309 C   0  0  3  0  0  0  0  0  0  0  0  0
   19.4448    9.2346    5.4115 C   0  0  0  0  0  0  0  0  0  0  0  0
   19.4545   10.1685    7.7359 C   0  0  0  0  0  0  0  0  0  0  0  0
   19.1452   10.0133    9.2068 C   0  0  0  0  0  0  0  0  0  0  0  0
   18.2764   10.8222    9.8401 C   0  0  0  0  0  0  0  0  0  0  0  0
   19.9111    8.9503    9.9268 C   0  0  0  0  0  0  0  0  0  0  0  0
   20.7738    8.2701    9.3912 O   0  0  0  0  0  0  0  0  0  0  0  0
   19.5167    8.8475   11.2214 O   0  0  0  0  0  0  0  0  0  0  0  0
   20.1964    7.8562   12.0040 C   0  0  0  0  0  0  0  0  0  0  0  0
   19.5037    6.5144   11.8611 C   0  0  0  0  0  0  0  0  0  0  0  0
    0.4262   -1.2858   -0.4657 H   0  0  0  0  0  0  0  0  0  0  0  0
    0.3159    0.4588   -0.1756 H   0  0  0  0  0  0  0  0  0  0  0  0
    0.3955   -0.6668    1.1944 H   0  0  0  0  0  0  0  0  0  0  0  0
    2.6233   -0.2230   -0.8634 H   0  0  0  0  0  0  0  0  0  0  0  0
    2.7025   -1.3421    0.4988 H   0  0  0  0  0  0  0  0  0  0  0  0
    2.4466    0.5786    2.0922 H   0  0  0  0  0  0  0  0  0  0  0  0
    2.3665    1.6981    0.7301 H   0  0  0  0  0  0  0  0  0  0  0  0
    4.6615    0.9892    0.0128 H   0  0  0  0  0  0  0  0  0  0  0  0
    4.7415   -0.1297    1.3751 H   0  0  0  0  0  0  0  0  0  0  0  0
    4.4933    1.7903    2.9674 H   0  0  0  0  0  0  0  0  0  0  0  0
    4.4127    2.9099    1.6051 H   0  0  0  0  0  0  0  0  0  0  0  0
    6.7020    2.1917    0.8794 H   0  0  0  0  0  0  0  0  0  0  0  0
    6.7823    1.0713    2.2403 H   0  0  0  0  0  0  0  0  0  0  0  0
    6.5479    2.9917    3.8351 H   0  0  0  0  0  0  0  0  0  0  0  0
    6.4700    4.1124    2.4734 H   0  0  0  0  0  0  0  0  0  0  0  0
    8.7527    3.3847    1.7415 H   0  0  0  0  0  0  0  0  0  0  0  0
    8.8306    2.2588    3.0981 H   0  0  0  0  0  0  0  0  0  0  0  0
    8.6148    4.1749    4.7008 H   0  0  0  0  0  0  0  0  0  0  0  0
    8.5392    5.3009    3.3432 H   0  0  0  0  0  0  0  0  0  0  0  0
   10.8119    4.5585    2.5978 H   0  0  0  0  0  0  0  0  0  0  0  0
   10.8888    3.4270    3.9496 H   0  0  0  0  0  0  0  0  0  0  0  0
   10.7019    5.3339    5.5625 H   0  0  0  0  0  0  0  0  0  0  0  0
   10.6136    6.4690    4.2130 H   0  0  0  0  0  0  0  0  0  0  0  0
   12.8739    5.7179    3.4342 H   0  0  0  0  0  0  0  0  0  0  0  0
   12.9651    4.5868    4.7852 H   0  0  0  0  0  0  0  0  0  0  0  0
   12.8151    6.4910    6.4008 H   0  0  0  0  0  0  0  0  0  0  0  0
   12.6988    7.6287    5.0556 H   0  0  0  0  0  0  0  0  0  0  0  0
   14.9417    6.8687    4.2258 H   0  0  0  0  0  0  0  0  0  0  0  0
   15.0621    5.7481    5.5833 H   0  0  0  0  0  0  0  0  0  0  0  0
   14.9508    7.6633    7.1867 H   0  0  0  0  0  0  0  0  0  0  0  0
   14.7979    8.7920    5.8371 H   0  0  0  0  0  0  0  0  0  0  0  0
   17.0059    8.0253    4.9503 H   0  0  0  0  0  0  0  0  0  0  0  0
   17.1805    6.9233    6.3202 H   0  0  0  0  0  0  0  0  0  0  0  0
   17.0021    8.8897    7.8813 H   0  0  0  0  0  0  0  0  0  0  0  0
   16.9587    9.9758    6.4958 H   0  0  0  0  0  0  0  0  0  0  0  0
   19.2619    8.0767    7.1981 H   0  0  0  0  0  0  0  0  0  0  0  0
   19.0420   10.1420    4.9490 H   0  0  0  0  0  0  0  0  0  0  0  0
   19.1991    8.3835    4.7695 H   0  0  0  0  0  0  0  0  0  0  0  0
   20.5372    9.3172    5.4248 H   0  0  0  0  0  0  0  0  0  0  0  0
   19.0761   11.1352    7.3755 H   0  0  0  0  0  0  0  0  0  0  0  0
   20.5454   10.2259    7.6196 H   0  0  0  0  0  0  0  0  0  0  0  0
   17.7454   11.6036    9.3053 H   0  0  0  0  0  0  0  0  0  0  0  0
   18.0650   10.7346   10.9014 H   0  0  0  0  0  0  0  0  0  0  0  0
   20.1504    8.1856   13.0471 H   0  0  0  0  0  0  0  0  0  0  0  0
   21.2569    7.7910   11.7345 H   0  0  0  0  0  0  0  0  0  0  0  0
   18.4484    6.5947   12.1421 H   0  0  0  0  0  0  0  0  0  0  0  0
   19.9817    5.7622   12.4948 H   0  0  0  0  0  0  0  0  0  0  0  0
   19.5312    6.1668   10.8236 H   0  0  0  0  0  0  0  0  0  0  0  0
  1  2  1  0  0  0  0
  1 28  1  0  0  0  0
  1 29  1  0  0  0  0
  1 30  1  0  0  0  0
  2  3  1  0  0  0  0
  2 31  1  0  0  0  0
  2 32  1  0  0  0  0
  3  4  1  0  0  0  0
  3 33  1  0  0  0  0
  3 34  1  0  0  0  0
  4  5  1  0  0  0  0
  4 35  1  0  0  0  0
  4 36  1  0  0  0  0
  5  6  1  0  0  0  0
  5 37  1  0  0  0  0
  5 38  1  0  0  0  0
  6  7  1  0  0  0  0
  6 39  1  0  0  0  0
  6 40  1  0  0  0  0
  7  8  1  0  0  0  0
  7 41  1  0  0  0  0
  7 42  1  0  0  0  0
  8  9  1  0  0  0  0
  8 43  1  0  0  0  0
  8 44  1  0  0  0  0
  9 10  1  0  0  0  0
  9 45  1  0  0  0  0
  9 46  1  0  0  0  0
 10 11  1  0  0  0  0
 10 47  1  0  0  0  0
 10 48  1  0  0  0  0
 11 12  1  0  0  0  0
 11 49  1  0  0  0  0
 11 50  1  0  0  0  0
 12 13  1  0  0  0  0
 12 51  1  0  0  0  0
 12 52  1  0  0  0  0
 13 14  1  0  0  0  0
 13 53  1  0  0  0  0
 13 54  1  0  0  0  0
 14 15  1  0  0  0  0
 14 55  1  0  0  0  0
 14 56  1  0  0  0  0
 15 16  1  0  0  0  0
 15 57  1  0  0  0  0
 15 58  1  0  0  0  0
 16 17  1  0  0  0  0
 16 59  1  0  0  0  0
 16 60  1  0  0  0  0
 17 18  1  0  0  0  0
 17 61  1  0  0  0  0
 17 62  1  0  0  0  0
 18 19  1  0  0  0  0
 18 20  1  0  0  0  0
 18 63  1  0  0  0  0
 19 64  1  0  0  0  0
 19 65  1  0  0  0  0
 19 66  1  0  0  0  0
 20 21  1  0  0  0  0
 20 67  1  0  0  0  0
 20 68  1  0  0  0  0
 21 22  2  0  0  0  0
 21 23  1  0  0  0  0
 22 69  1  0  0  0  0
 22 70  1  0  0  0  0
 23 24  2  0  0  0  0
 23 25  1  0  0  0  0
 25 26  1  0  0  0  0
 26 27  1  0  0  0  0
 26 71  1  0  0  0  0
 26 72  1  0  0  0  0
 27 73  1  0  0  0  0
 27 74  1  0  0  0  0
 27 75  1  0  0  0  0
M  END
