
 OpenBabel10072616273D

 33 33  0  0  1  0  0  0  0  0999 V2000
    2.5331   -0.6394    0.9480 C   0  0  0  0  0  0  0  0  0  0  0  0
    2.5613    0.1576   -0.3549 C   0  0  0  0  0  0  0  0  0  0  0  0
    1.1474    0.3840   -0.8796 C   0  0  0  0  0  0  0  0  0  0  0  0
    3.2306    1.4385   -0.1666 N   0  0  0  0  0  0  0  0  0  0  0  0
    4.6008    1.5179   -0.1373 C   0  0  0  0  0  0  0  0  0  0  0  0
    5.3537    0.5736   -0.3168 O   0  0  0  0  0  0  0  0  0  0  0  0
    5.0060    2.8071    0.1156 N   0  0  0  0  0  0  0  0  0  0  0  0
    6.4229    3.2166    0.1188 C   0  0  3  0  0  0  0  0  0  0  0  0
    7.2595    2.3808    1.1180 C   0  0  0  0  0  0  0  0  0  0  0  0
    8.5762    3.1092    1.3499 C   0  0  0  0  0  0  0  0  0  0  0  0
    8.1664    4.8413    1.3035 S   0  0  0  0  0  0  0  0  0  0  0  0
    8.0679    5.3390    2.6598 O   0  0  0  0  0  0  0  0  0  0  0  0
    8.9908    5.4893    0.3046 O   0  0  0  0  0  0  0  0  0  0  0  0
    6.5197    4.6592    0.6487 C   0  0  0  0  0  0  0  0  0  0  0  0
    6.9862    3.1287   -1.3118 C   0  0  0  0  0  0  0  0  0  0  0  0
    2.0330   -1.6029    0.8052 H   0  0  0  0  0  0  0  0  0  0  0  0
    2.0031   -0.0918    1.7354 H   0  0  0  0  0  0  0  0  0  0  0  0
    3.5466   -0.8381    1.3120 H   0  0  0  0  0  0  0  0  0  0  0  0
    3.1260   -0.4134   -1.1018 H   0  0  0  0  0  0  0  0  0  0  0  0
    0.5475    0.9657   -0.1710 H   0  0  0  0  0  0  0  0  0  0  0  0
    0.6384   -0.5688   -1.0574 H   0  0  0  0  0  0  0  0  0  0  0  0
    1.1687    0.9378   -1.8245 H   0  0  0  0  0  0  0  0  0  0  0  0
    2.7550    2.1132    0.4148 H   0  0  0  0  0  0  0  0  0  0  0  0
    4.3446    3.4877   -0.2346 H   0  0  0  0  0  0  0  0  0  0  0  0
    7.4508    1.3611    0.7697 H   0  0  0  0  0  0  0  0  0  0  0  0
    6.7194    2.2979    2.0707 H   0  0  0  0  0  0  0  0  0  0  0  0
    9.2929    2.9058    0.5496 H   0  0  0  0  0  0  0  0  0  0  0  0
    9.0225    2.8619    2.3155 H   0  0  0  0  0  0  0  0  0  0  0  0
    6.3440    5.4166   -0.1198 H   0  0  0  0  0  0  0  0  0  0  0  0
    5.8240    4.8263    1.4787 H   0  0  0  0  0  0  0  0  0  0  0  0
    6.9991    2.0957   -1.6753 H   0  0  0  0  0  0  0  0  0  0  0  0
    8.0084    3.5112   -1.3860 H   0  0  0  0  0  0  0  0  0  0  0  0
    6.3677    3.7088   -2.0067 H   0  0  0  0  0  0  0  0  0  0  0  0
  1  2  1  0  0  0  0
  1 16  1  0  0  0  0
  1 17  1  0  0  0  0
  1 18  1  0  0  0  0
  2  3  1  0  0  0  0
  2  4  1  0  0  0  0
  2 19  1  0  0  0  0
  3 20  1  0  0  0  0
  3 21  1  0  0  0  0
  3 22  1  0  0  0  0
  4  5  1  0  0  0  0
  4 23  1  0  0  0  0
  5  6  2  0  0  0  0
  5  7  1  0  0  0  0
  7  8  1  0  0  0  0
  7 24  1  0  0  0  0
  8  9  1  0  0  0  0
  8 14  1  0  0  0  0
  8 15  1  0  0  0  0
  9 10  1  0  0  0  0
  9 25  1  0  0  0  0
  9 26  1  0  0  0  0
 10 11  1  0  0  0  0
 10 27  1  0  0  0  0
 10 28  1  0  0  0  0
 11 12  2  0  0  0  0
 11 13  2  0  0  0  0
 11 14  1  0  0  0  0
 14 29  1  0  0  0  0
 14 30  1  0  0  0  0
 15 31  1  0  0  0  0
 15 32  1  0  0  0  0
 15 33  1  0  0  0  0
M  END
