
 OpenBabel10072619493D

 70 74  0  0  1  0  0  0  0  0999 V2000
    5.1153   -4.1285    6.7004 C   0  0  0  0  0  0  0  0  0  0  0  0
    5.2562   -2.8734    6.0432 O   0  0  0  0  0  0  0  0  0  0  0  0
    4.8212   -2.8606    4.7420 C   0  0  0  0  0  0  0  0  0  0  0  0
    3.5825   -3.3527    4.2881 C   0  0  0  0  0  0  0  0  0  0  0  0
    3.2685   -3.2399    2.9287 C   0  0  0  0  0  0  0  0  0  0  0  0
    4.1500   -2.5902    2.0583 C   0  0  0  0  0  0  0  0  0  0  0  0
    5.3629   -2.0713    2.5153 C   0  0  0  0  0  0  0  0  0  0  0  0
    5.6934   -2.2094    3.8600 C   0  0  0  0  0  0  0  0  0  0  0  0
    3.7084   -2.3440    0.3473 S   0  0  0  0  0  0  0  0  0  0  0  0
    4.8029   -2.8956   -0.4290 O   0  0  0  0  0  0  0  0  0  0  0  0
    2.3614   -2.8547    0.1614 O   0  0  0  0  0  0  0  0  0  0  0  0
    3.7117   -0.7338    0.2052 N   0  0  0  0  0  0  0  0  0  0  0  0
    2.6925   -0.0208    0.5506 C   0  0  0  0  0  0  0  0  0  0  0  0
    2.8105    1.3365    0.4855 N   0  0  0  0  0  0  0  0  0  0  0  0
    1.4347   -0.3929    0.9798 N   0  0  0  0  0  0  0  0  0  0  0  0
    0.4537    0.4884    1.3524 N   0  0  0  0  0  0  0  0  0  0  0  0
   -0.7836    0.1272    1.2242 C   0  0  0  0  0  0  0  0  0  0  0  0
   -1.8334    1.1431    1.6078 C   0  0  0  0  0  0  0  0  0  0  0  0
   -2.5171    1.5869    0.3138 C   0  0  3  0  0  0  0  0  0  0  0  0
   -2.9627    0.3871   -0.5643 C   0  0  0  0  0  0  0  0  0  0  0  0
   -2.3546   -0.9774   -0.2450 C   0  0  0  0  0  0  0  0  0  0  0  0
   -1.3475   -1.1215    0.6402 C   0  0  0  0  0  0  0  0  0  0  0  0
   -0.8852   -2.4785    1.0176 C   0  0  0  0  0  0  0  0  0  0  0  0
   -0.0497   -2.6398    1.9041 O   0  0  0  0  0  0  0  0  0  0  0  0
   -1.4943   -3.6333    0.3262 C   0  0  0  0  0  0  0  0  0  0  0  0
   -2.5155   -3.3976   -0.6072 C   0  0  0  0  0  0  0  0  0  0  0  0
   -2.9321   -2.0723   -0.8899 N   0  0  0  0  0  0  0  0  0  0  0  0
   -3.9009   -1.8538   -1.8660 O   0  0  0  0  0  0  0  0  0  0  0  0
   -3.1060   -4.5014   -1.2377 C   0  0  0  0  0  0  0  0  0  0  0  0
   -2.6870   -5.8019   -0.9401 C   0  0  0  0  0  0  0  0  0  0  0  0
   -1.6621   -6.0095   -0.0193 C   0  0  0  0  0  0  0  0  0  0  0  0
   -1.0594   -4.9317    0.6203 C   0  0  0  0  0  0  0  0  0  0  0  0
   -1.1444   -7.6099    0.3358 Cl  0  0  0  0  0  0  0  0  0  0  0  0
   -3.6727    2.5303    0.6143 C   0  0  0  0  0  0  0  0  0  0  0  0
   -3.6354    3.8584    0.1714 C   0  0  0  0  0  0  0  0  0  0  0  0
   -4.6954    4.7294    0.4445 C   0  0  0  0  0  0  0  0  0  0  0  0
   -5.8174    4.2915    1.1620 C   0  0  0  0  0  0  0  0  0  0  0  0
   -5.8517    2.9648    1.6106 C   0  0  0  0  0  0  0  0  0  0  0  0
   -4.7927    2.0960    1.3416 C   0  0  0  0  0  0  0  0  0  0  0  0
   -6.9757    5.2138    1.4537 C   0  0  0  0  0  0  0  0  0  0  0  0
   -6.8767    6.4260    0.8397 F   0  0  0  0  0  0  0  0  0  0  0  0
   -8.1688    4.6907    1.0539 F   0  0  0  0  0  0  0  0  0  0  0  0
   -7.1123    5.4777    2.7828 F   0  0  0  0  0  0  0  0  0  0  0  0
    2.7404   -3.9224    5.2077 O   0  0  0  0  0  0  0  0  0  0  0  0
    1.3554   -3.9503    4.8726 C   0  0  0  0  0  0  0  0  0  0  0  0
    5.8981   -4.1902    7.4640 H   0  0  0  0  0  0  0  0  0  0  0  0
    5.2502   -4.9754    6.0184 H   0  0  0  0  0  0  0  0  0  0  0  0
    4.1516   -4.1832    7.2146 H   0  0  0  0  0  0  0  0  0  0  0  0
    2.3382   -3.6376    2.5376 H   0  0  0  0  0  0  0  0  0  0  0  0
    6.0396   -1.5559    1.8377 H   0  0  0  0  0  0  0  0  0  0  0  0
    6.6334   -1.8068    4.2322 H   0  0  0  0  0  0  0  0  0  0  0  0
    3.5273    1.6882   -0.1325 H   0  0  0  0  0  0  0  0  0  0  0  0
    1.9142    1.8110    0.4679 H   0  0  0  0  0  0  0  0  0  0  0  0
    1.2712   -1.4009    1.0953 H   0  0  0  0  0  0  0  0  0  0  0  0
   -2.5288    0.6709    2.3118 H   0  0  0  0  0  0  0  0  0  0  0  0
   -1.3753    1.9950    2.1239 H   0  0  0  0  0  0  0  0  0  0  0  0
   -1.7674    2.1347   -0.2769 H   0  0  0  0  0  0  0  0  0  0  0  0
   -4.0528    0.2767   -0.5121 H   0  0  0  0  0  0  0  0  0  0  0  0
   -2.7447    0.6272   -1.6143 H   0  0  0  0  0  0  0  0  0  0  0  0
   -3.3695   -1.7691   -2.6796 H   0  0  0  0  0  0  0  0  0  0  0  0
   -3.9120   -4.3631   -1.9538 H   0  0  0  0  0  0  0  0  0  0  0  0
   -3.1658   -6.6475   -1.4289 H   0  0  0  0  0  0  0  0  0  0  0  0
   -0.2602   -5.0946    1.3395 H   0  0  0  0  0  0  0  0  0  0  0  0
   -2.7816    4.2303   -0.3924 H   0  0  0  0  0  0  0  0  0  0  0  0
   -4.6428    5.7557    0.0840 H   0  0  0  0  0  0  0  0  0  0  0  0
   -6.7137    2.5962    2.1646 H   0  0  0  0  0  0  0  0  0  0  0  0
   -4.8573    1.0705    1.7020 H   0  0  0  0  0  0  0  0  0  0  0  0
    1.1498   -4.7227    4.1245 H   0  0  0  0  0  0  0  0  0  0  0  0
    1.0001   -2.9696    4.5382 H   0  0  0  0  0  0  0  0  0  0  0  0
    0.8005   -4.2133    5.7782 H   0  0  0  0  0  0  0  0  0  0  0  0
  1  2  1  0  0  0  0
  1 46  1  0  0  0  0
  1 47  1  0  0  0  0
  1 48  1  0  0  0  0
  2  3  1  0  0  0  0
  3  4  2  0  0  0  0
  3  8  1  0  0  0  0
  4  5  1  0  0  0  0
  4 44  1  0  0  0  0
  5  6  2  0  0  0  0
  5 49  1  0  0  0  0
  6  7  1  0  0  0  0
  6  9  1  0  0  0  0
  7  8  2  0  0  0  0
  7 50  1  0  0  0  0
  8 51  1  0  0  0  0
  9 10  2  0  0  0  0
  9 11  2  0  0  0  0
  9 12  1  0  0  0  0
 12 13  2  0  0  0  0
 13 14  1  0  0  0  0
 13 15  1  0  0  0  0
 14 52  1  0  0  0  0
 14 53  1  0  0  0  0
 15 16  1  0  0  0  0
 15 54  1  0  0  0  0
 16 17  2  0  0  0  0
 17 18  1  0  0  0  0
 17 22  1  0  0  0  0
 18 19  1  0  0  0  0
 18 55  1  0  0  0  0
 18 56  1  0  0  0  0
 19 20  1  0  0  0  0
 19 34  1  0  0  0  0
 19 57  1  0  0  0  0
 20 21  1  0  0  0  0
 20 58  1  0  0  0  0
 20 59  1  0  0  0  0
 21 22  2  0  0  0  0
 21 27  1  0  0  0  0
 22 23  1  0  0  0  0
 23 24  2  0  0  0  0
 23 25  1  0  0  0  0
 25 26  2  0  0  0  0
 25 32  1  0  0  0  0
 26 27  1  0  0  0  0
 26 29  1  0  0  0  0
 27 28  1  0  0  0  0
 28 60  1  0  0  0  0
 29 30  2  0  0  0  0
 29 61  1  0  0  0  0
 30 31  1  0  0  0  0
 30 62  1  0  0  0  0
 31 32  2  0  0  0  0
 31 33  1  0  0  0  0
 32 63  1  0  0  0  0
 34 35  2  0  0  0  0
 34 39  1  0  0  0  0
 35 36  1  0  0  0  0
 35 64  1  0  0  0  0
 36 37  2  0  0  0  0
 36 65  1  0  0  0  0
 37 38  1  0  0  0  0
 37 40  1  0  0  0  0
 38 39  2  0  0  0  0
 38 66  1  0  0  0  0
 39 67  1  0  0  0  0
 40 41  1  0  0  0  0
 40 42  1  0  0  0  0
 40 43  1  0  0  0  0
 44 45  1  0  0  0  0
 45 68  1  0  0  0  0
 45 69  1  0  0  0  0
 45 70  1  0  0  0  0
M  END
