
 OpenBabel10072620103D

 36 37  0  0  0  0  0  0  0  0999 V2000
    1.8383    0.3210    0.5701 C   0  0  0  0  0  0  0  0  0  0  0  0
    3.0817   -0.3552    0.7093 O   0  0  0  0  0  0  0  0  0  0  0  0
    3.4158   -1.2270   -0.2900 C   0  0  0  0  0  0  0  0  0  0  0  0
    2.8882   -1.2309   -1.5813 C   0  0  0  0  0  0  0  0  0  0  0  0
    3.3149   -2.1885   -2.5153 C   0  0  0  0  0  0  0  0  0  0  0  0
    4.3320   -3.1026   -2.1745 C   0  0  0  0  0  0  0  0  0  0  0  0
    4.8525   -3.0899   -0.8785 C   0  0  0  0  0  0  0  0  0  0  0  0
    4.3899   -2.1616    0.0569 C   0  0  0  0  0  0  0  0  0  0  0  0
    4.8501   -3.8811   -3.1792 O   0  0  0  0  0  0  0  0  0  0  0  0
    5.4381   -5.1163   -2.7847 C   0  0  0  0  0  0  0  0  0  0  0  0
    2.6982   -2.1790   -3.7930 N   0  0  0  0  0  0  0  0  0  0  0  0
    2.2438   -3.3456   -4.4004 C   0  0  0  0  0  0  0  0  0  0  0  0
    2.1636   -4.4391   -3.8495 O   0  0  0  0  0  0  0  0  0  0  0  0
    1.8228   -3.0726   -5.6955 N   0  0  0  0  0  0  0  0  0  0  0  0
    1.0936   -3.9399   -6.5372 C   0  0  0  0  0  0  0  0  0  0  0  0
    0.3874   -5.0531   -6.0678 C   0  0  0  0  0  0  0  0  0  0  0  0
   -0.3581   -5.8530   -6.9448 C   0  0  0  0  0  0  0  0  0  0  0  0
   -0.3947   -5.5467   -8.3076 C   0  0  0  0  0  0  0  0  0  0  0  0
    0.3104   -4.4378   -8.7853 C   0  0  0  0  0  0  0  0  0  0  0  0
    1.0443   -3.6371   -7.9023 C   0  0  0  0  0  0  0  0  0  0  0  0
   -1.3730   -6.5763   -9.5683 Br  0  0  0  0  0  0  0  0  0  0  0  0
   -1.2314   -7.1845   -6.2663 Cl  0  0  0  0  0  0  0  0  0  0  0  0
    1.6420    0.8501    1.5082 H   0  0  0  0  0  0  0  0  0  0  0  0
    1.0174   -0.3859    0.4043 H   0  0  0  0  0  0  0  0  0  0  0  0
    1.8843    1.0673   -0.2297 H   0  0  0  0  0  0  0  0  0  0  0  0
    2.1298   -0.5125   -1.8699 H   0  0  0  0  0  0  0  0  0  0  0  0
    5.6404   -3.7698   -0.5764 H   0  0  0  0  0  0  0  0  0  0  0  0
    4.7988   -2.1550    1.0644 H   0  0  0  0  0  0  0  0  0  0  0  0
    6.4413   -4.9537   -2.3745 H   0  0  0  0  0  0  0  0  0  0  0  0
    5.5450   -5.7347   -3.6820 H   0  0  0  0  0  0  0  0  0  0  0  0
    4.8027   -5.6594   -2.0765 H   0  0  0  0  0  0  0  0  0  0  0  0
    2.1107   -1.3850   -4.0021 H   0  0  0  0  0  0  0  0  0  0  0  0
    2.2677   -2.2734   -6.1267 H   0  0  0  0  0  0  0  0  0  0  0  0
    0.3866   -5.3073   -5.0116 H   0  0  0  0  0  0  0  0  0  0  0  0
    0.2923   -4.1887   -9.8443 H   0  0  0  0  0  0  0  0  0  0  0  0
    1.5861   -2.7836   -8.3039 H   0  0  0  0  0  0  0  0  0  0  0  0
  1  2  1  0  0  0  0
  1 23  1  0  0  0  0
  1 24  1  0  0  0  0
  1 25  1  0  0  0  0
  2  3  1  0  0  0  0
  3  4  2  0  0  0  0
  3  8  1  0  0  0  0
  4  5  1  0  0  0  0
  4 26  1  0  0  0  0
  5  6  2  0  0  0  0
  5 11  1  0  0  0  0
  6  7  1  0  0  0  0
  6  9  1  0  0  0  0
  7  8  2  0  0  0  0
  7 27  1  0  0  0  0
  8 28  1  0  0  0  0
  9 10  1  0  0  0  0
 10 29  1  0  0  0  0
 10 30  1  0  0  0  0
 10 31  1  0  0  0  0
 11 12  1  0  0  0  0
 11 32  1  0  0  0  0
 12 13  2  0  0  0  0
 12 14  1  0  0  0  0
 14 15  1  0  0  0  0
 14 33  1  0  0  0  0
 15 16  2  0  0  0  0
 15 20  1  0  0  0  0
 16 17  1  0  0  0  0
 16 34  1  0  0  0  0
 17 18  2  0  0  0  0
 17 22  1  0  0  0  0
 18 19  1  0  0  0  0
 18 21  1  0  0  0  0
 19 20  2  0  0  0  0
 19 35  1  0  0  0  0
 20 36  1  0  0  0  0
M  END
