
 OpenBabel10072620093D

 91 96  0  0  1  0  0  0  0  0999 V2000
    4.1822    2.1212   -1.6315 C   0  0  0  0  0  0  0  0  0  0  0  0
    4.5046    0.7542   -0.9862 C   0  0  0  0  0  0  0  0  0  0  0  0
    5.7501    0.1546   -1.6674 C   0  0  0  0  0  0  0  0  0  0  0  0
    4.8768    1.0347    0.4911 C   0  0  0  0  0  0  0  0  0  0  0  0
    3.2326   -0.1651   -1.0567 C   0  0  1  0  0  0  0  0  0  0  0  0
    2.6421   -0.3848   -2.4935 C   0  0  0  0  0  0  0  0  0  0  0  0
    3.3331   -0.3686   -3.5161 O   0  0  0  0  0  0  0  0  0  0  0  0
    1.2845   -0.6543   -2.5920 N   0  0  0  0  0  0  0  0  0  0  0  0
    0.3687   -0.9391   -1.4979 C   0  0  0  0  0  0  0  0  0  0  0  0
   -1.0155   -1.0225   -2.1430 C   0  0  1  0  0  0  0  0  0  0  0  0
   -0.6881   -1.5668   -3.5371 C   0  0  0  0  0  0  0  0  0  0  0  0
    0.6810   -0.9918   -3.8754 C   0  0  1  0  0  0  0  0  0  0  0  0
    0.5622    0.2585   -4.7568 C   0  0  0  0  0  0  0  0  0  0  0  0
   -0.3418    1.0836   -4.6780 O   0  0  0  0  0  0  0  0  0  0  0  0
    1.6355    0.4268   -5.6029 N   0  0  0  0  0  0  0  0  0  0  0  0
    1.6980    1.4853   -6.5882 C   0  0  3  0  0  0  0  0  0  0  0  0
    0.7817    1.3838   -7.7971 C   0  0  0  0  0  0  0  0  0  0  0  0
    2.2521    1.1587   -7.9811 C   0  0  2  0  0  0  0  0  0  0  0  0
    2.7386   -0.1937   -8.2918 C   0  0  0  0  0  0  0  0  0  0  0  0
    3.9173   -0.6991   -7.8996 C   0  0  0  0  0  0  0  0  0  0  0  0
    1.9793    2.8697   -6.0488 C   0  0  0  0  0  0  0  0  0  0  0  0
    2.9956    3.4890   -6.3258 O   0  0  0  0  0  0  0  0  0  0  0  0
    0.9990    3.3498   -5.2448 O   0  0  0  0  0  0  0  0  0  0  0  0
   -1.8632   -1.9840   -1.5289 O   0  0  0  0  0  0  0  0  0  0  0  0
   -2.6009   -1.6556   -0.4250 C   0  0  0  0  0  0  0  0  0  0  0  0
   -2.3979   -0.5244    0.3573 C   0  0  0  0  0  0  0  0  0  0  0  0
   -3.1964   -0.3361    1.4800 C   0  0  0  0  0  0  0  0  0  0  0  0
   -4.1754   -1.2099    1.8179 N   0  0  0  0  0  0  0  0  0  0  0  0
   -4.3792   -2.3003    1.0642 C   0  0  0  0  0  0  0  0  0  0  0  0
   -3.6108   -2.5783   -0.0755 C   0  0  0  0  0  0  0  0  0  0  0  0
   -3.8871   -3.7485   -0.8189 C   0  0  0  0  0  0  0  0  0  0  0  0
   -4.9104   -4.6207   -0.4431 C   0  0  0  0  0  0  0  0  0  0  0  0
   -5.6649   -4.3424    0.6891 C   0  0  0  0  0  0  0  0  0  0  0  0
   -5.3868   -3.1860    1.4250 C   0  0  0  0  0  0  0  0  0  0  0  0
   -6.6903   -5.1026    1.1807 O   0  0  0  0  0  0  0  0  0  0  0  0
   -6.9854   -6.3099    0.4893 C   0  0  0  0  0  0  0  0  0  0  0  0
   -3.0442    0.8150    2.3910 C   0  0  0  0  0  0  0  0  0  0  0  0
   -4.1742    1.3894    3.0044 C   0  0  0  0  0  0  0  0  0  0  0  0
   -4.0583    2.4712    3.8800 C   0  0  0  0  0  0  0  0  0  0  0  0
   -2.8047    3.0038    4.1637 C   0  0  0  0  0  0  0  0  0  0  0  0
   -1.6681    2.4485    3.5794 C   0  0  0  0  0  0  0  0  0  0  0  0
   -1.7873    1.3637    2.7046 C   0  0  0  0  0  0  0  0  0  0  0  0
    3.4912   -1.5038   -0.5089 N   0  0  0  0  0  0  0  0  0  0  0  0
    3.1648   -1.9596    0.7532 C   0  0  0  0  0  0  0  0  0  0  0  0
    2.3880   -1.2473    1.6733 C   0  0  0  0  0  0  0  0  0  0  0  0
    2.0479   -1.7924    2.9170 C   0  0  0  0  0  0  0  0  0  0  0  0
    2.4768   -3.0697    3.2602 C   0  0  0  0  0  0  0  0  0  0  0  0
    3.2357   -3.8045    2.3566 C   0  0  0  0  0  0  0  0  0  0  0  0
    3.5568   -3.2580    1.1109 C   0  0  0  0  0  0  0  0  0  0  0  0
    5.0010    2.8348   -1.4806 H   0  0  0  0  0  0  0  0  0  0  0  0
    3.2799    2.5605   -1.1889 H   0  0  0  0  0  0  0  0  0  0  0  0
    4.0222    2.0358   -2.7109 H   0  0  0  0  0  0  0  0  0  0  0  0
    6.5970    0.8495   -1.6063 H   0  0  0  0  0  0  0  0  0  0  0  0
    5.5874   -0.0530   -2.7278 H   0  0  0  0  0  0  0  0  0  0  0  0
    6.0665   -0.7763   -1.1844 H   0  0  0  0  0  0  0  0  0  0  0  0
    5.6987    1.7581    0.5617 H   0  0  0  0  0  0  0  0  0  0  0  0
    5.2082    0.1270    1.0061 H   0  0  0  0  0  0  0  0  0  0  0  0
    4.0263    1.4506    1.0427 H   0  0  0  0  0  0  0  0  0  0  0  0
    2.4511    0.3513   -0.4935 H   0  0  0  0  0  0  0  0  0  0  0  0
    0.4195   -0.1546   -0.7397 H   0  0  0  0  0  0  0  0  0  0  0  0
    0.6528   -1.8935   -1.0420 H   0  0  0  0  0  0  0  0  0  0  0  0
   -1.4958   -0.0401   -2.2357 H   0  0  0  0  0  0  0  0  0  0  0  0
   -1.4699   -1.3173   -4.2623 H   0  0  0  0  0  0  0  0  0  0  0  0
   -0.6330   -2.6628   -3.5044 H   0  0  0  0  0  0  0  0  0  0  0  0
    1.2916   -1.7444   -4.3876 H   0  0  0  0  0  0  0  0  0  0  0  0
    2.5165   -0.0202   -5.3372 H   0  0  0  0  0  0  0  0  0  0  0  0
    0.3654    2.2991   -8.2032 H   0  0  0  0  0  0  0  0  0  0  0  0
    0.0998    0.5438   -7.8530 H   0  0  0  0  0  0  0  0  0  0  0  0
    2.7951    1.9436   -8.5037 H   0  0  0  0  0  0  0  0  0  0  0  0
    2.1034   -0.8135   -8.9237 H   0  0  0  0  0  0  0  0  0  0  0  0
    4.6030   -0.1195   -7.2875 H   0  0  0  0  0  0  0  0  0  0  0  0
    4.2264   -1.6968   -8.1950 H   0  0  0  0  0  0  0  0  0  0  0  0
    0.2960    2.6724   -5.0920 H   0  0  0  0  0  0  0  0  0  0  0  0
   -1.6470    0.2131    0.1143 H   0  0  0  0  0  0  0  0  0  0  0  0
   -3.3018   -3.9813   -1.7061 H   0  0  0  0  0  0  0  0  0  0  0  0
   -5.0853   -5.4994   -1.0548 H   0  0  0  0  0  0  0  0  0  0  0  0
   -5.9747   -2.9686    2.3138 H   0  0  0  0  0  0  0  0  0  0  0  0
   -7.7634   -6.8370    1.0502 H   0  0  0  0  0  0  0  0  0  0  0  0
   -6.1101   -6.9663    0.4422 H   0  0  0  0  0  0  0  0  0  0  0  0
   -7.3781   -6.0994   -0.5111 H   0  0  0  0  0  0  0  0  0  0  0  0
   -5.1636    0.9819    2.7989 H   0  0  0  0  0  0  0  0  0  0  0  0
   -4.9493    2.8892    4.3425 H   0  0  0  0  0  0  0  0  0  0  0  0
   -2.7133    3.8457    4.8445 H   0  0  0  0  0  0  0  0  0  0  0  0
   -0.6866    2.8522    3.8146 H   0  0  0  0  0  0  0  0  0  0  0  0
   -0.8774    0.9361    2.2892 H   0  0  0  0  0  0  0  0  0  0  0  0
    4.2150   -2.0257   -0.9954 H   0  0  0  0  0  0  0  0  0  0  0  0
    2.0295   -0.2478    1.4578 H   0  0  0  0  0  0  0  0  0  0  0  0
    1.4502   -1.2151    3.6184 H   0  0  0  0  0  0  0  0  0  0  0  0
    2.2135   -3.4950    4.2248 H   0  0  0  0  0  0  0  0  0  0  0  0
    3.5767   -4.8040    2.6120 H   0  0  0  0  0  0  0  0  0  0  0  0
    4.1262   -3.8652    0.4107 H   0  0  0  0  0  0  0  0  0  0  0  0
  1  2  1  0  0  0  0
  1 50  1  0  0  0  0
  1 51  1  0  0  0  0
  1 52  1  0  0  0  0
  2  3  1  0  0  0  0
  2  4  1  0  0  0  0
  2  5  1  0  0  0  0
  3 53  1  0  0  0  0
  3 54  1  0  0  0  0
  3 55  1  0  0  0  0
  4 56  1  0  0  0  0
  4 57  1  0  0  0  0
  4 58  1  0  0  0  0
  5  6  1  0  0  0  0
  5 43  1  0  0  0  0
  5 59  1  1  0  0  0
  6  7  2  0  0  0  0
  6  8  1  0  0  0  0
  8  9  1  0  0  0  0
  8 12  1  0  0  0  0
  9 10  1  0  0  0  0
  9 60  1  0  0  0  0
  9 61  1  0  0  0  0
 10 11  1  0  0  0  0
 10 24  1  0  0  0  0
 10 62  1  6  0  0  0
 11 12  1  0  0  0  0
 11 63  1  0  0  0  0
 11 64  1  0  0  0  0
 12 13  1  0  0  0  0
 12 65  1  6  0  0  0
 13 14  2  0  0  0  0
 13 15  1  0  0  0  0
 15 16  1  0  0  0  0
 15 66  1  0  0  0  0
 16 17  1  0  0  0  0
 16 18  1  0  0  0  0
 16 21  1  0  0  0  0
 17 18  1  0  0  0  0
 17 67  1  0  0  0  0
 17 68  1  0  0  0  0
 18 19  1  0  0  0  0
 18 69  1  6  0  0  0
 19 20  2  0  0  0  0
 19 70  1  0  0  0  0
 20 71  1  0  0  0  0
 20 72  1  0  0  0  0
 21 22  2  0  0  0  0
 21 23  1  0  0  0  0
 23 73  1  0  0  0  0
 24 25  1  0  0  0  0
 25 26  2  0  0  0  0
 25 30  1  0  0  0  0
 26 27  1  0  0  0  0
 26 74  1  0  0  0  0
 27 28  2  0  0  0  0
 27 37  1  0  0  0  0
 28 29  1  0  0  0  0
 29 30  2  0  0  0  0
 29 34  1  0  0  0  0
 30 31  1  0  0  0  0
 31 32  2  0  0  0  0
 31 75  1  0  0  0  0
 32 33  1  0  0  0  0
 32 76  1  0  0  0  0
 33 34  2  0  0  0  0
 33 35  1  0  0  0  0
 34 77  1  0  0  0  0
 35 36  1  0  0  0  0
 36 78  1  0  0  0  0
 36 79  1  0  0  0  0
 36 80  1  0  0  0  0
 37 38  2  0  0  0  0
 37 42  1  0  0  0  0
 38 39  1  0  0  0  0
 38 81  1  0  0  0  0
 39 40  2  0  0  0  0
 39 82  1  0  0  0  0
 40 41  1  0  0  0  0
 40 83  1  0  0  0  0
 41 42  2  0  0  0  0
 41 84  1  0  0  0  0
 42 85  1  0  0  0  0
 43 44  1  0  0  0  0
 43 86  1  0  0  0  0
 44 45  2  0  0  0  0
 44 49  1  0  0  0  0
 45 46  1  0  0  0  0
 45 87  1  0  0  0  0
 46 47  2  0  0  0  0
 46 88  1  0  0  0  0
 47 48  1  0  0  0  0
 47 89  1  0  0  0  0
 48 49  2  0  0  0  0
 48 90  1  0  0  0  0
 49 91  1  0  0  0  0
M  END
