
 OpenBabel10072620063D

121125  0  0  1  0  0  0  0  0999 V2000
    4.5281    2.9998    2.3691 C   0  0  0  0  0  0  0  0  0  0  0  0
    4.4842    1.9480    1.2721 C   0  0  3  0  0  0  0  0  0  0  0  0
    4.4542    0.5011    1.7331 C   0  0  3  0  0  0  0  0  0  0  0  0
    5.1176   -0.2986    0.6063 C   0  0  3  0  0  0  0  0  0  0  0  0
    5.1509    0.7626   -0.5473 C   0  0  3  0  0  0  0  0  0  0  0  0
    5.4126    2.0110    0.1800 O   0  0  0  0  0  0  0  0  0  0  0  0
    3.9140    0.8701   -1.2862 O   0  0  0  0  0  0  0  0  0  0  0  0
    3.9234    2.0045   -2.2145 C   0  0  3  0  0  0  0  0  0  0  0  0
    3.0354    3.1349   -1.6592 C   0  0  3  0  0  0  0  0  0  0  0  0
    1.5598    2.6798   -1.6269 C   0  0  3  0  0  0  0  0  0  0  0  0
    0.9840    2.2293   -2.9773 C   0  0  3  0  0  0  0  0  0  0  0  0
    1.9325    1.2750   -3.7254 C   0  0  3  0  0  0  0  0  0  0  0  0
    3.4378    1.5878   -3.6149 C   0  0  3  0  0  0  0  0  0  0  0  0
    4.2230    0.4501   -4.0300 O   0  0  0  0  0  0  0  0  0  0  0  0
    1.5502    1.2429   -5.1127 O   0  0  0  0  0  0  0  0  0  0  0  0
    0.6350    3.3926   -3.8354 N   0  0  0  0  0  0  0  0  0  0  0  0
   -0.5466    3.8980   -3.7248 C   0  0  0  0  0  0  0  0  0  0  0  0
   -1.5703    3.5116   -2.9352 N   0  0  0  0  0  0  0  0  0  0  0  0
   -0.8886    4.9650   -4.4786 N   0  0  0  0  0  0  0  0  0  0  0  0
    0.7449    3.7096   -1.0530 O   0  0  0  0  0  0  0  0  0  0  0  0
    3.2157    4.4162   -2.3859 N   0  0  0  0  0  0  0  0  0  0  0  0
    4.2510    5.1135   -2.0948 C   0  0  0  0  0  0  0  0  0  0  0  0
    5.2445    4.8369   -1.2176 N   0  0  0  0  0  0  0  0  0  0  0  0
    4.4411    6.3357   -2.6459 N   0  0  0  0  0  0  0  0  0  0  0  0
    4.4542   -1.5652    0.4285 O   0  0  0  0  0  0  0  0  0  0  0  0
    4.8445   -2.5907    1.4026 C   0  0  3  0  0  0  0  0  0  0  0  0
    4.4233   -3.9823    0.8741 C   0  0  3  0  0  0  0  0  0  0  0  0
    2.8906   -3.9438    0.7582 C   0  0  3  0  0  0  0  0  0  0  0  0
    2.1117   -3.5610    2.0432 C   0  0  3  0  0  0  0  0  0  0  0  0
    2.9207   -2.6050    2.9674 C   0  0  3  0  0  0  0  0  0  0  0  0
    4.3369   -2.4440    2.7285 O   0  0  0  0  0  0  0  0  0  0  0  0
    2.7246   -2.8328    4.4781 C   0  0  0  0  0  0  0  0  0  0  0  0
    3.7021   -2.0700    5.1956 O   0  0  0  0  0  0  0  0  0  0  0  0
    1.4420   -4.6304    2.7527 O   0  0  0  0  0  0  0  0  0  0  0  0
    0.3710   -5.2709    2.0285 C   0  0  3  0  0  0  0  0  0  0  0  0
   -0.7697   -4.3367    1.5619 C   0  0  3  0  0  0  0  0  0  0  0  0
   -1.6836   -4.0044    2.7396 C   0  0  3  0  0  0  0  0  0  0  0  0
   -2.2657   -5.2906    3.3443 C   0  0  3  0  0  0  0  0  0  0  0  0
   -1.0989   -6.2144    3.7636 C   0  0  3  0  0  0  0  0  0  0  0  0
   -0.1361   -6.4160    2.7193 O   0  0  0  0  0  0  0  0  0  0  0  0
   -1.6104   -7.6212    4.1369 C   0  0  0  0  0  0  0  0  0  0  0  0
   -0.5137   -8.4290    4.5996 O   0  0  0  0  0  0  0  0  0  0  0  0
   -0.9303   -9.7121    5.0523 C   0  0  3  0  0  0  0  0  0  0  0  0
    0.2672  -10.5015    5.6233 C   0  0  3  0  0  0  0  0  0  0  0  0
    1.2621  -10.8005    4.4928 C   0  0  3  0  0  0  0  0  0  0  0  0
    0.5583  -11.5619    3.3570 C   0  0  3  0  0  0  0  0  0  0  0  0
   -0.7359  -10.8430    2.9290 C   0  0  3  0  0  0  0  0  0  0  0  0
   -1.5823  -10.4963    4.0496 O   0  0  0  0  0  0  0  0  0  0  0  0
   -1.5967  -11.7234    2.0109 C   0  0  0  0  0  0  0  0  0  0  0  0
   -2.7516  -10.9912    1.5895 O   0  0  0  0  0  0  0  0  0  0  0  0
    0.2780  -12.9057    3.7987 O   0  0  0  0  0  0  0  0  0  0  0  0
    2.3409  -11.6007    5.0027 O   0  0  0  0  0  0  0  0  0  0  0  0
   -0.1671  -11.7697    6.1789 O   0  0  0  0  0  0  0  0  0  0  0  0
   -3.1487   -5.9425    2.4169 O   0  0  0  0  0  0  0  0  0  0  0  0
   -2.7137   -3.1193    2.2821 O   0  0  0  0  0  0  0  0  0  0  0  0
   -1.5635   -4.9622    0.5260 O   0  0  0  0  0  0  0  0  0  0  0  0
    2.4184   -5.0866    0.0526 O   0  0  0  0  0  0  0  0  0  0  0  0
    5.0993   -5.1649    1.4694 N   0  0  0  0  0  0  0  0  0  0  0  0
    4.5548   -5.8592    2.6241 C   0  0  0  0  0  0  0  0  0  0  0  0
    5.2667    0.2677    3.0013 C   0  0  0  0  0  0  0  0  0  0  0  0
    6.4618   -0.0133    3.0113 O   0  0  0  0  0  0  0  0  0  0  0  0
    3.0660    0.1893    1.8548 O   0  0  0  0  0  0  0  0  0  0  0  0
    3.8886    2.6772    3.2027 H   0  0  0  0  0  0  0  0  0  0  0  0
    4.0990    3.9445    2.0140 H   0  0  0  0  0  0  0  0  0  0  0  0
    5.5310    3.2068    2.7431 H   0  0  0  0  0  0  0  0  0  0  0  0
    3.5116    2.1424    0.8190 H   0  0  0  0  0  0  0  0  0  0  0  0
    6.1802   -0.5000    0.7939 H   0  0  0  0  0  0  0  0  0  0  0  0
    5.9689    0.5529   -1.2497 H   0  0  0  0  0  0  0  0  0  0  0  0
    4.9596    2.3444   -2.3378 H   0  0  0  0  0  0  0  0  0  0  0  0
    3.2735    3.3540   -0.6213 H   0  0  0  0  0  0  0  0  0  0  0  0
    1.4867    1.8255   -0.9412 H   0  0  0  0  0  0  0  0  0  0  0  0
    0.0722    1.6447   -2.7958 H   0  0  0  0  0  0  0  0  0  0  0  0
    1.7617    0.2575   -3.3549 H   0  0  0  0  0  0  0  0  0  0  0  0
    3.6813    2.3871   -4.3255 H   0  0  0  0  0  0  0  0  0  0  0  0
    3.7496   -0.3485   -3.7352 H   0  0  0  0  0  0  0  0  0  0  0  0
    1.2024    2.1462   -5.2886 H   0  0  0  0  0  0  0  0  0  0  0  0
   -1.3126    2.9564   -2.1251 H   0  0  0  0  0  0  0  0  0  0  0  0
   -2.2554    4.2120   -2.6944 H   0  0  0  0  0  0  0  0  0  0  0  0
   -0.0861    5.3509   -4.9653 H   0  0  0  0  0  0  0  0  0  0  0  0
   -1.4079    5.6883   -4.0006 H   0  0  0  0  0  0  0  0  0  0  0  0
    0.9455    4.4827   -1.6219 H   0  0  0  0  0  0  0  0  0  0  0  0
    5.3255    3.9099   -0.8105 H   0  0  0  0  0  0  0  0  0  0  0  0
    6.1140    5.3403   -1.2669 H   0  0  0  0  0  0  0  0  0  0  0  0
    3.8216    6.5385   -3.4233 H   0  0  0  0  0  0  0  0  0  0  0  0
    5.3889    6.6374   -2.8053 H   0  0  0  0  0  0  0  0  0  0  0  0
    5.9391   -2.5754    1.4749 H   0  0  0  0  0  0  0  0  0  0  0  0
    4.7821   -4.0243   -0.1628 H   0  0  0  0  0  0  0  0  0  0  0  0
    2.6686   -3.1189    0.0672 H   0  0  0  0  0  0  0  0  0  0  0  0
    1.3016   -2.9041    1.7180 H   0  0  0  0  0  0  0  0  0  0  0  0
    2.5027   -1.6143    2.8078 H   0  0  0  0  0  0  0  0  0  0  0  0
    2.8493   -3.8805    4.7568 H   0  0  0  0  0  0  0  0  0  0  0  0
    1.7356   -2.5019    4.8158 H   0  0  0  0  0  0  0  0  0  0  0  0
    4.4956   -2.0833    4.6225 H   0  0  0  0  0  0  0  0  0  0  0  0
    0.7834   -5.7477    1.1488 H   0  0  0  0  0  0  0  0  0  0  0  0
   -0.4237   -3.4063    1.1117 H   0  0  0  0  0  0  0  0  0  0  0  0
   -1.1230   -3.4688    3.5146 H   0  0  0  0  0  0  0  0  0  0  0  0
   -2.8883   -5.0482    4.2129 H   0  0  0  0  0  0  0  0  0  0  0  0
   -0.5685   -5.7771    4.6187 H   0  0  0  0  0  0  0  0  0  0  0  0
   -2.0312   -8.1048    3.2477 H   0  0  0  0  0  0  0  0  0  0  0  0
   -2.3767   -7.5594    4.9168 H   0  0  0  0  0  0  0  0  0  0  0  0
   -1.6607   -9.5735    5.8578 H   0  0  0  0  0  0  0  0  0  0  0  0
    0.7668   -9.9414    6.4213 H   0  0  0  0  0  0  0  0  0  0  0  0
    1.6978   -9.8697    4.1136 H   0  0  0  0  0  0  0  0  0  0  0  0
    1.2350  -11.6636    2.5012 H   0  0  0  0  0  0  0  0  0  0  0  0
   -0.4940   -9.9114    2.4029 H   0  0  0  0  0  0  0  0  0  0  0  0
   -1.9619  -12.6130    2.5357 H   0  0  0  0  0  0  0  0  0  0  0  0
   -1.0483  -12.0380    1.1187 H   0  0  0  0  0  0  0  0  0  0  0  0
   -3.1301  -10.6133    2.4065 H   0  0  0  0  0  0  0  0  0  0  0  0
   -0.0710  -12.8347    4.7130 H   0  0  0  0  0  0  0  0  0  0  0  0
    1.9434  -12.4693    5.2128 H   0  0  0  0  0  0  0  0  0  0  0  0
   -1.0467  -11.6324    6.5757 H   0  0  0  0  0  0  0  0  0  0  0  0
   -2.7371   -5.8863    1.5281 H   0  0  0  0  0  0  0  0  0  0  0  0
   -3.0869   -3.5314    1.4778 H   0  0  0  0  0  0  0  0  0  0  0  0
   -0.9791   -5.0440   -0.2528 H   0  0  0  0  0  0  0  0  0  0  0  0
    3.0831   -5.7904    0.1942 H   0  0  0  0  0  0  0  0  0  0  0  0
    6.0650   -4.9119    1.6897 H   0  0  0  0  0  0  0  0  0  0  0  0
    3.6323   -6.3998    2.3984 H   0  0  0  0  0  0  0  0  0  0  0  0
    4.4210   -5.2207    3.4987 H   0  0  0  0  0  0  0  0  0  0  0  0
    5.2811   -6.6306    2.9181 H   0  0  0  0  0  0  0  0  0  0  0  0
    4.7170    0.3925    3.9476 H   0  0  0  0  0  0  0  0  0  0  0  0
    2.7409   -0.0018    0.9546 H   0  0  0  0  0  0  0  0  0  0  0  0
  1  2  1  0  0  0  0
  1 63  1  0  0  0  0
  1 64  1  0  0  0  0
  1 65  1  0  0  0  0
  2  3  1  0  0  0  0
  2  6  1  0  0  0  0
  2 66  1  0  0  0  0
  3  4  1  0  0  0  0
  3 60  1  0  0  0  0
  3 62  1  0  0  0  0
  4  5  1  0  0  0  0
  4 25  1  0  0  0  0
  4 67  1  0  0  0  0
  5  6  1  0  0  0  0
  5  7  1  0  0  0  0
  5 68  1  0  0  0  0
  7  8  1  0  0  0  0
  8  9  1  0  0  0  0
  8 13  1  0  0  0  0
  8 69  1  0  0  0  0
  9 10  1  0  0  0  0
  9 21  1  0  0  0  0
  9 70  1  0  0  0  0
 10 11  1  0  0  0  0
 10 20  1  0  0  0  0
 10 71  1  0  0  0  0
 11 12  1  0  0  0  0
 11 16  1  0  0  0  0
 11 72  1  0  0  0  0
 12 13  1  0  0  0  0
 12 15  1  0  0  0  0
 12 73  1  0  0  0  0
 13 14  1  0  0  0  0
 13 74  1  0  0  0  0
 14 75  1  0  0  0  0
 15 76  1  0  0  0  0
 16 17  2  0  0  0  0
 17 18  1  0  0  0  0
 17 19  1  0  0  0  0
 18 77  1  0  0  0  0
 18 78  1  0  0  0  0
 19 79  1  0  0  0  0
 19 80  1  0  0  0  0
 20 81  1  0  0  0  0
 21 22  2  0  0  0  0
 22 23  1  0  0  0  0
 22 24  1  0  0  0  0
 23 82  1  0  0  0  0
 23 83  1  0  0  0  0
 24 84  1  0  0  0  0
 24 85  1  0  0  0  0
 25 26  1  0  0  0  0
 26 27  1  0  0  0  0
 26 31  1  0  0  0  0
 26 86  1  0  0  0  0
 27 28  1  0  0  0  0
 27 58  1  0  0  0  0
 27 87  1  0  0  0  0
 28 29  1  0  0  0  0
 28 57  1  0  0  0  0
 28 88  1  0  0  0  0
 29 30  1  0  0  0  0
 29 34  1  0  0  0  0
 29 89  1  0  0  0  0
 30 31  1  0  0  0  0
 30 32  1  0  0  0  0
 30 90  1  0  0  0  0
 32 33  1  0  0  0  0
 32 91  1  0  0  0  0
 32 92  1  0  0  0  0
 33 93  1  0  0  0  0
 34 35  1  0  0  0  0
 35 36  1  0  0  0  0
 35 40  1  0  0  0  0
 35 94  1  0  0  0  0
 36 37  1  0  0  0  0
 36 56  1  0  0  0  0
 36 95  1  0  0  0  0
 37 38  1  0  0  0  0
 37 55  1  0  0  0  0
 37 96  1  0  0  0  0
 38 39  1  0  0  0  0
 38 54  1  0  0  0  0
 38 97  1  0  0  0  0
 39 40  1  0  0  0  0
 39 41  1  0  0  0  0
 39 98  1  0  0  0  0
 41 42  1  0  0  0  0
 41 99  1  0  0  0  0
 41100  1  0  0  0  0
 42 43  1  0  0  0  0
 43 44  1  0  0  0  0
 43 48  1  0  0  0  0
 43101  1  0  0  0  0
 44 45  1  0  0  0  0
 44 53  1  0  0  0  0
 44102  1  0  0  0  0
 45 46  1  0  0  0  0
 45 52  1  0  0  0  0
 45103  1  0  0  0  0
 46 47  1  0  0  0  0
 46 51  1  0  0  0  0
 46104  1  0  0  0  0
 47 48  1  0  0  0  0
 47 49  1  0  0  0  0
 47105  1  0  0  0  0
 49 50  1  0  0  0  0
 49106  1  0  0  0  0
 49107  1  0  0  0  0
 50108  1  0  0  0  0
 51109  1  0  0  0  0
 52110  1  0  0  0  0
 53111  1  0  0  0  0
 54112  1  0  0  0  0
 55113  1  0  0  0  0
 56114  1  0  0  0  0
 57115  1  0  0  0  0
 58 59  1  0  0  0  0
 58116  1  0  0  0  0
 59117  1  0  0  0  0
 59118  1  0  0  0  0
 59119  1  0  0  0  0
 60 61  2  0  0  0  0
 60120  1  0  0  0  0
 62121  1  0  0  0  0
M  END
