
 OpenBabel10072620223D

 29 29  0  0  0  0  0  0  0  0999 V2000
    1.2805    0.9858    0.5451 C   0  0  0  0  0  0  0  0  0  0  0  0
    2.5011    0.1481    0.1785 C   0  0  0  0  0  0  0  0  0  0  0  0
    2.0886   -1.2752   -0.1922 C   0  0  0  0  0  0  0  0  0  0  0  0
    3.2244    0.7823   -0.9178 N   0  0  0  0  0  0  0  0  0  0  0  0
    4.5644    0.5159   -1.1269 C   0  0  0  0  0  0  0  0  0  0  0  0
    5.2205   -0.2066   -0.3905 O   0  0  0  0  0  0  0  0  0  0  0  0
    5.0251    1.1928   -2.2357 N   0  0  0  0  0  0  0  0  0  0  0  0
    6.3039    1.1073   -2.8218 C   0  0  0  0  0  0  0  0  0  0  0  0
    7.2592    0.1517   -2.4664 C   0  0  0  0  0  0  0  0  0  0  0  0
    8.5049    0.1432   -3.1119 C   0  0  0  0  0  0  0  0  0  0  0  0
    8.8047    1.0759   -4.1131 C   0  0  0  0  0  0  0  0  0  0  0  0
    7.8475    2.0210   -4.4723 C   0  0  0  0  0  0  0  0  0  0  0  0
    6.6052    2.0330   -3.8323 C   0  0  0  0  0  0  0  0  0  0  0  0
    9.5111   -0.8582   -2.7406 N   0  3  0  0  0  0  0  0  0  0  0  0
    9.1479   -1.8198   -2.0502 O   0  0  0  0  0  0  0  0  0  0  0  0
   10.6685   -0.6862   -3.1515 O   0  5  0  0  0  0  0  0  0  0  0  0
    0.7393    0.5418    1.3870 H   0  0  0  0  0  0  0  0  0  0  0  0
    0.5881    1.0728   -0.2996 H   0  0  0  0  0  0  0  0  0  0  0  0
    1.5801    2.0000    0.8314 H   0  0  0  0  0  0  0  0  0  0  0  0
    3.1688    0.1037    1.0473 H   0  0  0  0  0  0  0  0  0  0  0  0
    1.4341   -1.2815   -1.0709 H   0  0  0  0  0  0  0  0  0  0  0  0
    1.5543   -1.7546    0.6346 H   0  0  0  0  0  0  0  0  0  0  0  0
    2.9625   -1.8911   -0.4291 H   0  0  0  0  0  0  0  0  0  0  0  0
    2.6879    0.9812   -1.7487 H   0  0  0  0  0  0  0  0  0  0  0  0
    4.4241    1.9359   -2.5585 H   0  0  0  0  0  0  0  0  0  0  0  0
    7.0495   -0.5888   -1.6994 H   0  0  0  0  0  0  0  0  0  0  0  0
    9.7679    1.0732   -4.6192 H   0  0  0  0  0  0  0  0  0  0  0  0
    8.0666    2.7494   -5.2498 H   0  0  0  0  0  0  0  0  0  0  0  0
    5.8769    2.7830   -4.1331 H   0  0  0  0  0  0  0  0  0  0  0  0
  1  2  1  0  0  0  0
  1 17  1  0  0  0  0
  1 18  1  0  0  0  0
  1 19  1  0  0  0  0
  2  3  1  0  0  0  0
  2  4  1  0  0  0  0
  2 20  1  0  0  0  0
  3 21  1  0  0  0  0
  3 22  1  0  0  0  0
  3 23  1  0  0  0  0
  4  5  1  0  0  0  0
  4 24  1  0  0  0  0
  5  6  2  0  0  0  0
  5  7  1  0  0  0  0
  7  8  1  0  0  0  0
  7 25  1  0  0  0  0
  8  9  2  0  0  0  0
  8 13  1  0  0  0  0
  9 10  1  0  0  0  0
  9 26  1  0  0  0  0
 10 11  2  0  0  0  0
 10 14  1  0  0  0  0
 11 12  1  0  0  0  0
 11 27  1  0  0  0  0
 12 13  2  0  0  0  0
 12 28  1  0  0  0  0
 13 29  1  0  0  0  0
 14 15  2  0  0  0  0
 14 16  1  0  0  0  0
M  CHG  2  14   1  16  -1
M  END
