
 OpenBabel10072619533D

 49 52  0  0  0  0  0  0  0  0999 V2000
    1.6513    1.7688    3.1987 C   0  0  0  0  0  0  0  0  0  0  0  0
    0.3513    2.0985    2.5288 C   0  0  0  0  0  0  0  0  0  0  0  0
    0.2633    3.1287    1.5901 C   0  0  0  0  0  0  0  0  0  0  0  0
   -0.9577    3.4378    0.9733 C   0  0  0  0  0  0  0  0  0  0  0  0
   -2.1139    2.7255    1.2840 C   0  0  0  0  0  0  0  0  0  0  0  0
   -2.0236    1.7075    2.2456 C   0  0  0  0  0  0  0  0  0  0  0  0
   -0.8065    1.3928    2.8584 C   0  0  0  0  0  0  0  0  0  0  0  0
   -3.3943    2.9465    0.7376 N   0  0  0  0  0  0  0  0  0  0  0  0
   -3.8936    3.7116   -0.3021 C   0  0  0  0  0  0  0  0  0  0  0  0
   -3.0310    4.6608   -1.3903 S   0  0  0  0  0  0  0  0  0  0  0  0
   -5.2773    3.6653   -0.3962 N   0  0  0  0  0  0  0  0  0  0  0  0
   -5.7383    2.5084   -0.2709 N   0  0  0  0  0  0  0  0  0  0  0  0
   -7.1377    2.4538   -0.3643 C   0  0  0  0  0  0  0  0  0  0  0  0
   -7.9717    3.2875   -1.0771 C   0  0  0  0  0  0  0  0  0  0  0  0
   -9.2583    2.8298   -0.8922 N   0  0  0  0  0  0  0  0  0  0  0  0
   -9.2591    1.7424   -0.0302 C   0  0  0  0  0  0  0  0  0  0  0  0
  -10.3107    0.9701    0.4927 C   0  0  0  0  0  0  0  0  0  0  0  0
   -9.9931   -0.0972    1.3385 C   0  0  0  0  0  0  0  0  0  0  0  0
   -8.6714   -0.3923    1.6546 C   0  0  0  0  0  0  0  0  0  0  0  0
   -7.6291    0.3830    1.1387 C   0  0  0  0  0  0  0  0  0  0  0  0
   -7.9228    1.4710    0.2897 C   0  0  0  0  0  0  0  0  0  0  0  0
  -10.4414    3.4472   -1.4821 C   0  0  0  0  0  0  0  0  0  0  0  0
  -10.7505    2.8775   -2.8469 C   0  0  0  0  0  0  0  0  0  0  0  0
  -11.5934    1.7652   -2.9910 C   0  0  0  0  0  0  0  0  0  0  0  0
  -11.8574    1.2335   -4.2559 C   0  0  0  0  0  0  0  0  0  0  0  0
  -11.2798    1.8095   -5.3848 C   0  0  0  0  0  0  0  0  0  0  0  0
  -10.4412    2.9136   -5.2607 C   0  0  0  0  0  0  0  0  0  0  0  0
  -10.1762    3.4437   -3.9961 C   0  0  0  0  0  0  0  0  0  0  0  0
  -11.6000    1.1482   -6.9404 Cl  0  0  0  0  0  0  0  0  0  0  0  0
   -7.7182    4.3516   -1.8354 O   0  0  0  0  0  0  0  0  0  0  0  0
    2.4858    2.3135    2.7454 H   0  0  0  0  0  0  0  0  0  0  0  0
    1.8655    0.6991    3.1060 H   0  0  0  0  0  0  0  0  0  0  0  0
    1.6055    2.0358    4.2591 H   0  0  0  0  0  0  0  0  0  0  0  0
    1.1460    3.7086    1.3269 H   0  0  0  0  0  0  0  0  0  0  0  0
   -0.9505    4.2631    0.2741 H   0  0  0  0  0  0  0  0  0  0  0  0
   -2.9007    1.1304    2.5287 H   0  0  0  0  0  0  0  0  0  0  0  0
   -0.7693    0.5919    3.5935 H   0  0  0  0  0  0  0  0  0  0  0  0
   -4.1395    2.4076    1.1651 H   0  0  0  0  0  0  0  0  0  0  0  0
  -11.3480    1.1821    0.2568 H   0  0  0  0  0  0  0  0  0  0  0  0
  -10.7928   -0.7083    1.7518 H   0  0  0  0  0  0  0  0  0  0  0  0
   -8.4455   -1.2299    2.3098 H   0  0  0  0  0  0  0  0  0  0  0  0
   -6.5999    0.1488    1.3939 H   0  0  0  0  0  0  0  0  0  0  0  0
  -10.2710    4.5290   -1.5395 H   0  0  0  0  0  0  0  0  0  0  0  0
  -11.2853    3.3077   -0.7976 H   0  0  0  0  0  0  0  0  0  0  0  0
  -12.0477    1.2982   -2.1208 H   0  0  0  0  0  0  0  0  0  0  0  0
  -12.5072    0.3680   -4.3517 H   0  0  0  0  0  0  0  0  0  0  0  0
   -9.9845    3.3615   -6.1389 H   0  0  0  0  0  0  0  0  0  0  0  0
   -9.5074    4.2989   -3.9103 H   0  0  0  0  0  0  0  0  0  0  0  0
   -6.7491    4.4813   -1.8040 H   0  0  0  0  0  0  0  0  0  0  0  0
  1  2  1  0  0  0  0
  1 31  1  0  0  0  0
  1 32  1  0  0  0  0
  1 33  1  0  0  0  0
  2  3  2  0  0  0  0
  2  7  1  0  0  0  0
  3  4  1  0  0  0  0
  3 34  1  0  0  0  0
  4  5  2  0  0  0  0
  4 35  1  0  0  0  0
  5  6  1  0  0  0  0
  5  8  1  0  0  0  0
  6  7  2  0  0  0  0
  6 36  1  0  0  0  0
  7 37  1  0  0  0  0
  8  9  1  0  0  0  0
  8 38  1  0  0  0  0
  9 10  2  0  0  0  0
  9 11  1  0  0  0  0
 11 12  2  3  0  0  0
 12 13  1  0  0  0  0
 13 14  2  0  0  0  0
 13 21  1  0  0  0  0
 14 15  1  0  0  0  0
 14 30  1  0  0  0  0
 15 16  1  0  0  0  0
 15 22  1  0  0  0  0
 16 17  2  0  0  0  0
 16 21  1  0  0  0  0
 17 18  1  0  0  0  0
 17 39  1  0  0  0  0
 18 19  2  0  0  0  0
 18 40  1  0  0  0  0
 19 20  1  0  0  0  0
 19 41  1  0  0  0  0
 20 21  2  0  0  0  0
 20 42  1  0  0  0  0
 22 23  1  0  0  0  0
 22 43  1  0  0  0  0
 22 44  1  0  0  0  0
 23 24  2  0  0  0  0
 23 28  1  0  0  0  0
 24 25  1  0  0  0  0
 24 45  1  0  0  0  0
 25 26  2  0  0  0  0
 25 46  1  0  0  0  0
 26 27  1  0  0  0  0
 26 29  1  0  0  0  0
 27 28  2  0  0  0  0
 27 47  1  0  0  0  0
 28 48  1  0  0  0  0
 30 49  1  0  0  0  0
M  END
