
 OpenBabel10072619553D

 46 49  0  0  0  0  0  0  0  0999 V2000
   -0.4793    1.2124    0.0736 C   0  0  0  0  0  0  0  0  0  0  0  0
   -1.2223    0.2160    0.5410 C   0  0  0  0  0  0  0  0  0  0  0  0
   -0.6743   -1.0264    0.7507 C   0  0  0  0  0  0  0  0  0  0  0  0
    0.6636   -1.2441    0.5717 C   0  0  0  0  0  0  0  0  0  0  0  0
    1.3535   -0.2533    0.0366 C   0  0  0  0  0  0  0  0  0  0  0  0
    0.8920    1.0800   -0.0700 C   0  0  0  0  0  0  0  0  0  0  0  0
    1.7867    2.2212   -0.3113 N   0  0  0  0  0  0  0  0  0  0  0  0
    3.2337    2.0038   -0.4516 C   0  0  0  0  0  0  0  0  0  0  0  0
    4.0618    3.0601   -0.6732 C   0  0  0  0  0  0  0  0  0  0  0  0
    5.5581    2.8354   -0.8183 C   0  0  0  0  0  0  0  0  0  0  0  0
    6.7994    2.6490   -0.9387 N   0  0  0  0  0  0  0  0  0  0  0  0
    3.4909    4.4651   -0.7757 C   0  0  0  0  0  0  0  0  0  0  0  0
    2.2191    4.7169   -0.6597 N   0  0  0  0  0  0  0  0  0  0  0  0
    1.9358    6.0686   -0.7636 C   0  0  0  0  0  0  0  0  0  0  0  0
    3.0418    6.8453   -0.9915 C   0  0  0  0  0  0  0  0  0  0  0  0
    4.4783    5.8579   -1.0553 S   0  0  0  0  0  0  0  0  0  0  0  0
    0.5317    6.6367   -0.6369 C   0  0  0  0  0  0  0  0  0  0  0  0
    0.1342    7.7382   -1.2630 C   0  0  0  0  0  0  0  0  0  0  0  0
   -1.1674    8.1673   -1.1652 C   0  0  0  0  0  0  0  0  0  0  0  0
   -2.0598    7.5263   -0.3515 C   0  0  0  0  0  0  0  0  0  0  0  0
   -1.6500    6.3959    0.1945 C   0  0  0  0  0  0  0  0  0  0  0  0
   -0.3001    5.9754    0.2515 C   0  0  0  0  0  0  0  0  0  0  0  0
   -3.6866    8.1804   -0.0446 Cl  0  0  0  0  0  0  0  0  0  0  0  0
   -1.6994    9.5780   -2.1115 Cl  0  0  0  0  0  0  0  0  0  0  0  0
   -1.7388   -2.3945    1.2716 S   0  0  0  0  0  0  0  0  0  0  0  0
   -0.9297   -3.3741    2.1248 O   0  0  0  0  0  0  0  0  0  0  0  0
   -2.9077   -1.8468    2.0937 O   0  0  0  0  0  0  0  0  0  0  0  0
   -2.3600   -3.2280   -0.1486 N   0  0  0  0  0  0  0  0  0  0  0  0
   -3.1744   -2.4986   -1.1313 C   0  0  0  0  0  0  0  0  0  0  0  0
   -2.6587   -1.8822   -2.1553 N   0  0  0  0  0  0  0  0  0  0  0  0
   -3.6209   -1.2866   -2.9538 C   0  0  0  0  0  0  0  0  0  0  0  0
   -4.8991   -1.4482   -2.4861 C   0  0  0  0  0  0  0  0  0  0  0  0
   -4.8973   -2.3905   -1.0183 S   0  0  0  0  0  0  0  0  0  0  0  0
   -0.9321    2.1021   -0.1877 H   0  0  0  0  0  0  0  0  0  0  0  0
   -2.2204    0.3763    0.7487 H   0  0  0  0  0  0  0  0  0  0  0  0
    1.1103   -2.1349    0.8401 H   0  0  0  0  0  0  0  0  0  0  0  0
    2.2948   -0.4662   -0.3291 H   0  0  0  0  0  0  0  0  0  0  0  0
    1.4167    3.1310   -0.3788 H   0  0  0  0  0  0  0  0  0  0  0  0
    3.6214    1.0500   -0.3820 H   0  0  0  0  0  0  0  0  0  0  0  0
    3.0268    7.8705   -1.1088 H   0  0  0  0  0  0  0  0  0  0  0  0
    0.8091    8.2768   -1.8282 H   0  0  0  0  0  0  0  0  0  0  0  0
   -2.3638    5.7761    0.6084 H   0  0  0  0  0  0  0  0  0  0  0  0
    0.0343    5.2425    0.8965 H   0  0  0  0  0  0  0  0  0  0  0  0
   -2.1621   -4.1827   -0.2849 H   0  0  0  0  0  0  0  0  0  0  0  0
   -3.3968   -0.7702   -3.8187 H   0  0  0  0  0  0  0  0  0  0  0  0
   -5.7440   -1.0659   -2.9389 H   0  0  0  0  0  0  0  0  0  0  0  0
  1  2  2  0  0  0  0
  1  6  1  0  0  0  0
  1 34  1  0  0  0  0
  2  3  1  0  0  0  0
  2 35  1  0  0  0  0
  3  4  2  0  0  0  0
  3 25  1  0  0  0  0
  4  5  1  0  0  0  0
  4 36  1  0  0  0  0
  5  6  2  0  0  0  0
  5 37  1  0  0  0  0
  6  7  1  0  0  0  0
  7  8  1  0  0  0  0
  7 38  1  0  0  0  0
  8  9  2  0  0  0  0
  8 39  1  0  0  0  0
  9 10  1  0  0  0  0
  9 12  1  0  0  0  0
 10 11  3  0  0  0  0
 12 13  2  0  0  0  0
 12 16  1  0  0  0  0
 13 14  1  0  0  0  0
 14 15  2  0  0  0  0
 14 17  1  0  0  0  0
 15 16  1  0  0  0  0
 15 40  1  0  0  0  0
 17 18  2  0  0  0  0
 17 22  1  0  0  0  0
 18 19  1  0  0  0  0
 18 41  1  0  0  0  0
 19 20  2  0  0  0  0
 19 24  1  0  0  0  0
 20 21  1  0  0  0  0
 20 23  1  0  0  0  0
 21 22  2  0  0  0  0
 21 42  1  0  0  0  0
 22 43  1  0  0  0  0
 25 26  2  0  0  0  0
 25 27  2  0  0  0  0
 25 28  1  0  0  0  0
 28 29  1  0  0  0  0
 28 44  1  0  0  0  0
 29 30  2  0  0  0  0
 29 33  1  0  0  0  0
 30 31  1  0  0  0  0
 31 32  2  0  0  0  0
 31 45  1  0  0  0  0
 32 33  1  0  0  0  0
 32 46  1  0  0  0  0
M  END
