
 OpenBabel10072616323D

 57 57  0  0  0  0  0  0  0  0999 V2000
    2.4522    0.3433    0.0613 C   0  0  0  0  0  0  0  0  0  0  0  0
    3.3332   -0.7380    0.3373 O   0  0  0  0  0  0  0  0  0  0  0  0
    3.6686   -1.5699   -0.6879 C   0  0  0  0  0  0  0  0  0  0  0  0
    3.0751   -1.6099   -1.9461 C   0  0  0  0  0  0  0  0  0  0  0  0
    3.5099   -2.5349   -2.9241 C   0  0  0  0  0  0  0  0  0  0  0  0
    4.5789   -3.4088   -2.6320 C   0  0  0  0  0  0  0  0  0  0  0  0
    5.1446   -3.3773   -1.3541 C   0  0  0  0  0  0  0  0  0  0  0  0
    4.6906   -2.4664   -0.3968 C   0  0  0  0  0  0  0  0  0  0  0  0
    5.0076   -4.2368   -3.6473 O   0  0  0  0  0  0  0  0  0  0  0  0
    6.1475   -5.0701   -3.3518 C   0  0  0  0  0  0  0  0  0  0  0  0
    6.6295   -5.7848   -4.6268 C   0  0  0  0  0  0  0  0  0  0  0  0
    7.4137   -4.8935   -5.5138 N   0  3  0  0  0  0  0  0  0  0  0  0
    8.1693   -5.3185   -6.5475 C   0  0  0  0  0  0  0  0  0  0  0  0
    8.2384   -6.6073   -6.8910 N   0  0  0  0  0  0  0  0  0  0  0  0
    8.8659   -4.4322   -7.2643 N   0  0  0  0  0  0  0  0  0  0  0  0
    2.7819   -2.5781   -4.2397 C   0  0  0  0  0  0  0  0  0  0  0  0
    1.6664   -3.5865   -4.2761 N   0  3  0  0  0  0  0  0  0  0  0  0
    0.4502   -3.2648   -3.4581 C   0  0  0  0  0  0  0  0  0  0  0  0
   -0.6498   -4.2823   -3.7760 C   0  0  0  0  0  0  0  0  0  0  0  0
   -1.9254   -4.0616   -2.9473 C   0  0  0  0  0  0  0  0  0  0  0  0
   -3.0113   -5.0892   -3.2966 C   0  0  0  0  0  0  0  0  0  0  0  0
   -4.2311   -4.8997   -2.4985 N   0  3  0  0  0  0  0  0  0  0  0  0
   -5.3442   -5.6558   -2.6305 C   0  0  0  0  0  0  0  0  0  0  0  0
   -5.4170   -6.6549   -3.5139 N   0  0  0  0  0  0  0  0  0  0  0  0
   -6.4071   -5.4061   -1.8616 N   0  0  0  0  0  0  0  0  0  0  0  0
    2.3791    0.9577    0.9629 H   0  0  0  0  0  0  0  0  0  0  0  0
    1.4477   -0.0225   -0.1732 H   0  0  0  0  0  0  0  0  0  0  0  0
    2.8368    0.9749   -0.7455 H   0  0  0  0  0  0  0  0  0  0  0  0
    2.2675   -0.9215   -2.1783 H   0  0  0  0  0  0  0  0  0  0  0  0
    5.9481   -4.0403   -1.0479 H   0  0  0  0  0  0  0  0  0  0  0  0
    5.1548   -2.4449    0.5894 H   0  0  0  0  0  0  0  0  0  0  0  0
    5.8410   -5.8285   -2.6218 H   0  0  0  0  0  0  0  0  0  0  0  0
    6.9752   -4.4687   -2.9569 H   0  0  0  0  0  0  0  0  0  0  0  0
    5.7696   -6.1500   -5.1984 H   0  0  0  0  0  0  0  0  0  0  0  0
    7.2815   -6.6128   -4.3313 H   0  0  0  0  0  0  0  0  0  0  0  0
    7.4536   -3.9034   -5.2987 H   0  0  0  0  0  0  0  0  0  0  0  0
    7.7535   -7.3332   -6.3821 H   0  0  0  0  0  0  0  0  0  0  0  0
    8.8238   -6.9145   -7.6607 H   0  0  0  0  0  0  0  0  0  0  0  0
    8.8793   -3.4416   -7.0544 H   0  0  0  0  0  0  0  0  0  0  0  0
    9.4490   -4.7308   -8.0396 H   0  0  0  0  0  0  0  0  0  0  0  0
    3.4635   -2.8495   -5.0533 H   0  0  0  0  0  0  0  0  0  0  0  0
    2.3502   -1.6054   -4.5038 H   0  0  0  0  0  0  0  0  0  0  0  0
    2.0633   -4.4845   -3.9696 H   0  0  0  0  0  0  0  0  0  0  0  0
    1.3984   -3.7080   -5.2606 H   0  0  0  0  0  0  0  0  0  0  0  0
    0.1350   -2.2506   -3.7212 H   0  0  0  0  0  0  0  0  0  0  0  0
    0.7393   -3.3115   -2.4047 H   0  0  0  0  0  0  0  0  0  0  0  0
   -0.2737   -5.2963   -3.5957 H   0  0  0  0  0  0  0  0  0  0  0  0
   -0.9004   -4.2227   -4.8419 H   0  0  0  0  0  0  0  0  0  0  0  0
   -2.3112   -3.0496   -3.1176 H   0  0  0  0  0  0  0  0  0  0  0  0
   -1.6911   -4.1309   -1.8788 H   0  0  0  0  0  0  0  0  0  0  0  0
   -2.6316   -6.0974   -3.1019 H   0  0  0  0  0  0  0  0  0  0  0  0
   -3.2773   -4.9905   -4.3540 H   0  0  0  0  0  0  0  0  0  0  0  0
   -4.2707   -4.1640   -1.8020 H   0  0  0  0  0  0  0  0  0  0  0  0
   -4.6502   -6.8963   -4.1241 H   0  0  0  0  0  0  0  0  0  0  0  0
   -6.2592   -7.2136   -3.6055 H   0  0  0  0  0  0  0  0  0  0  0  0
   -6.4264   -4.6670   -1.1709 H   0  0  0  0  0  0  0  0  0  0  0  0
   -7.2552   -5.9582   -1.9419 H   0  0  0  0  0  0  0  0  0  0  0  0
  1  2  1  0  0  0  0
  1 26  1  0  0  0  0
  1 27  1  0  0  0  0
  1 28  1  0  0  0  0
  2  3  1  0  0  0  0
  3  4  2  0  0  0  0
  3  8  1  0  0  0  0
  4  5  1  0  0  0  0
  4 29  1  0  0  0  0
  5  6  2  0  0  0  0
  5 16  1  0  0  0  0
  6  7  1  0  0  0  0
  6  9  1  0  0  0  0
  7  8  2  0  0  0  0
  7 30  1  0  0  0  0
  8 31  1  0  0  0  0
  9 10  1  0  0  0  0
 10 11  1  0  0  0  0
 10 32  1  0  0  0  0
 10 33  1  0  0  0  0
 11 12  1  0  0  0  0
 11 34  1  0  0  0  0
 11 35  1  0  0  0  0
 12 13  2  0  0  0  0
 12 36  1  0  0  0  0
 13 14  1  0  0  0  0
 13 15  1  0  0  0  0
 14 37  1  0  0  0  0
 14 38  1  0  0  0  0
 15 39  1  0  0  0  0
 15 40  1  0  0  0  0
 16 17  1  0  0  0  0
 16 41  1  0  0  0  0
 16 42  1  0  0  0  0
 17 18  1  0  0  0  0
 17 43  1  0  0  0  0
 17 44  1  0  0  0  0
 18 19  1  0  0  0  0
 18 45  1  0  0  0  0
 18 46  1  0  0  0  0
 19 20  1  0  0  0  0
 19 47  1  0  0  0  0
 19 48  1  0  0  0  0
 20 21  1  0  0  0  0
 20 49  1  0  0  0  0
 20 50  1  0  0  0  0
 21 22  1  0  0  0  0
 21 51  1  0  0  0  0
 21 52  1  0  0  0  0
 22 23  2  0  0  0  0
 22 53  1  0  0  0  0
 23 24  1  0  0  0  0
 23 25  1  0  0  0  0
 24 54  1  0  0  0  0
 24 55  1  0  0  0  0
 25 56  1  0  0  0  0
 25 57  1  0  0  0  0
M  CHG  3  12   1  17   1  22   1
M  END
