
 OpenBabel10072620223D

 37 38  0  0  0  0  0  0  0  0999 V2000
    1.2375    0.2577    0.0365 C   0  0  0  0  0  0  0  0  0  0  0  0
    2.6277   -0.2121    0.0852 N   0  0  0  0  0  0  0  0  0  0  0  0
    3.5656    0.8445    0.4824 C   0  0  0  0  0  0  0  0  0  0  0  0
    2.9565   -1.5458    0.3153 C   0  0  0  0  0  0  0  0  0  0  0  0
    2.4539   -2.7133   -0.1117 C   0  0  0  0  0  0  0  0  0  0  0  0
    1.3768   -2.9622   -1.1051 C   0  0  0  0  0  0  0  0  0  0  0  0
    0.8862   -2.0994   -1.8219 O   0  0  0  0  0  0  0  0  0  0  0  0
    1.0517   -4.3170   -1.1602 N   0  0  0  0  0  0  0  0  0  0  0  0
    1.8512   -5.1617   -0.4338 C   0  0  0  0  0  0  0  0  0  0  0  0
    1.9421   -6.4285   -0.2587 N   0  0  0  0  0  0  0  0  0  0  0  0
    1.0896   -7.5664   -0.9691 S   0  0  0  0  0  0  0  0  0  0  0  0
   -0.2669   -7.5729   -0.4641 O   0  0  0  0  0  0  0  0  0  0  0  0
    1.3910   -7.6474   -2.3811 O   0  0  0  0  0  0  0  0  0  0  0  0
    1.8495   -8.9954   -0.2198 C   0  0  0  0  0  0  0  0  0  0  0  0
    1.3512   -9.9754    0.6205 C   0  0  0  0  0  0  0  0  0  0  0  0
    2.3513  -10.9066    1.0242 C   0  0  0  0  0  0  0  0  0  0  0  0
    3.5743  -10.6185    0.4602 C   0  0  0  0  0  0  0  0  0  0  0  0
    3.5128   -9.2397   -0.5521 S   0  0  0  0  0  0  0  0  0  0  0  0
    3.0515   -4.2234    0.4617 S   0  0  0  0  0  0  0  0  0  0  0  0
   -0.0857   -4.6588   -2.0001 C   0  0  0  0  0  0  0  0  0  0  0  0
   -1.3401   -4.5772   -1.1732 C   0  0  0  0  0  0  0  0  0  0  0  0
   -2.2234   -3.5692   -1.2244 C   0  0  0  0  0  0  0  0  0  0  0  0
    1.1331    1.0444   -0.7181 H   0  0  0  0  0  0  0  0  0  0  0  0
    0.9571    0.6745    1.0100 H   0  0  0  0  0  0  0  0  0  0  0  0
    0.5127   -0.5253   -0.1864 H   0  0  0  0  0  0  0  0  0  0  0  0
    3.2891    1.8018    0.0253 H   0  0  0  0  0  0  0  0  0  0  0  0
    4.5832    0.6011    0.1551 H   0  0  0  0  0  0  0  0  0  0  0  0
    3.5582    0.9576    1.5719 H   0  0  0  0  0  0  0  0  0  0  0  0
    3.8250   -1.5947    0.9757 H   0  0  0  0  0  0  0  0  0  0  0  0
    0.3168  -10.0028    0.9438 H   0  0  0  0  0  0  0  0  0  0  0  0
    2.1855  -11.7419    1.6953 H   0  0  0  0  0  0  0  0  0  0  0  0
    4.5072  -11.1493    0.5918 H   0  0  0  0  0  0  0  0  0  0  0  0
    0.0157   -5.6498   -2.4332 H   0  0  0  0  0  0  0  0  0  0  0  0
   -0.1470   -3.9648   -2.8480 H   0  0  0  0  0  0  0  0  0  0  0  0
   -1.5553   -5.4165   -0.5163 H   0  0  0  0  0  0  0  0  0  0  0  0
   -2.0643   -2.7029   -1.8623 H   0  0  0  0  0  0  0  0  0  0  0  0
   -3.1205   -3.5842   -0.6105 H   0  0  0  0  0  0  0  0  0  0  0  0
  1  2  1  0  0  0  0
  1 23  1  0  0  0  0
  1 24  1  0  0  0  0
  1 25  1  0  0  0  0
  2  3  1  0  0  0  0
  2  4  1  0  0  0  0
  3 26  1  0  0  0  0
  3 27  1  0  0  0  0
  3 28  1  0  0  0  0
  4  5  2  0  0  0  0
  4 29  1  0  0  0  0
  5  6  1  0  0  0  0
  5 19  1  0  0  0  0
  6  7  2  0  0  0  0
  6  8  1  0  0  0  0
  8  9  1  0  0  0  0
  8 20  1  0  0  0  0
  9 10  2  3  0  0  0
  9 19  1  0  0  0  0
 10 11  1  0  0  0  0
 11 12  2  0  0  0  0
 11 13  2  0  0  0  0
 11 14  1  0  0  0  0
 14 15  2  0  0  0  0
 14 18  1  0  0  0  0
 15 16  1  0  0  0  0
 15 30  1  0  0  0  0
 16 17  2  0  0  0  0
 16 31  1  0  0  0  0
 17 18  1  0  0  0  0
 17 32  1  0  0  0  0
 20 21  1  0  0  0  0
 20 33  1  0  0  0  0
 20 34  1  0  0  0  0
 21 22  2  0  0  0  0
 21 35  1  0  0  0  0
 22 36  1  0  0  0  0
 22 37  1  0  0  0  0
M  END
