
 OpenBabel10072620173D

 31 31  0  0  0  0  0  0  0  0999 V2000
   -0.2804    0.6411    1.1434 C   0  0  0  0  0  0  0  0  0  0  0  0
    0.4208   -0.5661    1.1977 C   0  0  0  0  0  0  0  0  0  0  0  0
    0.7650   -1.1660   -0.0070 C   0  0  0  0  0  0  0  0  0  0  0  0
    0.4005   -0.5576   -1.1863 C   0  0  0  0  0  0  0  0  0  0  0  0
   -0.2514    0.6077   -1.2444 N   0  0  0  0  0  0  0  0  0  0  0  0
   -0.5849    1.1950   -0.0844 C   0  0  0  0  0  0  0  0  0  0  0  0
    1.5340   -2.4770   -0.0224 C   0  0  0  0  0  0  0  0  0  0  0  0
    3.0264   -2.1889   -0.0355 C   0  0  0  0  0  0  0  0  0  0  0  0
    3.7953   -3.5000   -0.0529 C   0  0  0  0  0  0  0  0  0  0  0  0
    3.4456   -4.2384   -1.2143 O   0  0  0  0  0  0  0  0  0  0  0  0
    5.5921   -3.1531   -0.0686 P   0  0  0  0  0  0  0  0  0  0  0  0
    5.6078   -3.1644    1.4796 O   0  0  0  0  0  0  0  0  0  0  0  0
    5.8671   -4.6178   -0.9472 O   0  0  0  0  0  0  0  0  0  0  0  0
    7.2907   -2.8252   -0.0835 O   0  0  0  0  0  0  0  0  0  0  0  0
    3.3750   -4.4735    1.4385 P   0  0  0  0  0  0  0  0  0  0  0  0
    3.1289   -3.1626    2.2249 O   0  0  0  0  0  0  0  0  0  0  0  0
    2.0740   -5.2252    0.5812 O   0  0  0  0  0  0  0  0  0  0  0  0
    2.9777   -5.3939    2.8485 O   0  0  0  0  0  0  0  0  0  0  0  0
   -0.5683    1.1150    2.0137 H   0  0  0  0  0  0  0  0  0  0  0  0
    0.6740   -0.9968    2.1007 H   0  0  0  0  0  0  0  0  0  0  0  0
    0.6435   -1.0262   -2.0731 H   0  0  0  0  0  0  0  0  0  0  0  0
   -1.0885    2.0954   -0.1112 H   0  0  0  0  0  0  0  0  0  0  0  0
    1.2707   -3.0347   -0.8968 H   0  0  0  0  0  0  0  0  0  0  0  0
    1.2880   -3.0451    0.8503 H   0  0  0  0  0  0  0  0  0  0  0  0
    3.2899   -1.6325    0.8396 H   0  0  0  0  0  0  0  0  0  0  0  0
    3.2721   -1.6197   -0.9075 H   0  0  0  0  0  0  0  0  0  0  0  0
    3.6684   -3.7224   -2.0048 H   0  0  0  0  0  0  0  0  0  0  0  0
    5.0206   -5.0649   -1.1036 H   0  0  0  0  0  0  0  0  0  0  0  0
    7.4627   -1.9897    0.3782 H   0  0  0  0  0  0  0  0  0  0  0  0
    2.0408   -4.8792   -0.3244 H   0  0  0  0  0  0  0  0  0  0  0  0
    3.5912   -5.1685    3.5652 H   0  0  0  0  0  0  0  0  0  0  0  0
  1  2  2  0  0  0  0
  1  6  1  0  0  0  0
  1 19  1  0  0  0  0
  2  3  1  0  0  0  0
  2 20  1  0  0  0  0
  3  4  2  0  0  0  0
  3  7  1  0  0  0  0
  4  5  1  0  0  0  0
  4 21  1  0  0  0  0
  5  6  2  0  0  0  0
  6 22  1  0  0  0  0
  7  8  1  0  0  0  0
  7 23  1  0  0  0  0
  7 24  1  0  0  0  0
  8  9  1  0  0  0  0
  8 25  1  0  0  0  0
  8 26  1  0  0  0  0
  9 10  1  0  0  0  0
  9 11  1  0  0  0  0
  9 15  1  0  0  0  0
 10 27  1  0  0  0  0
 11 12  2  0  0  0  0
 11 13  1  0  0  0  0
 11 14  1  0  0  0  0
 13 28  1  0  0  0  0
 14 29  1  0  0  0  0
 15 16  2  0  0  0  0
 15 17  1  0  0  0  0
 15 18  1  0  0  0  0
 17 30  1  0  0  0  0
 18 31  1  0  0  0  0
M  END
