
 OpenBabel10072620213D

 44 46  0  0  0  0  0  0  0  0999 V2000
   -0.1351   -0.3206    2.1607 C   0  0  0  0  0  0  0  0  0  0  0  0
   -0.3973   -0.7439    0.7170 C   0  0  0  0  0  0  0  0  0  0  0  0
    0.8465   -1.3697    0.0851 C   0  0  0  0  0  0  0  0  0  0  0  0
    1.9825   -0.4242    0.1988 N   0  0  0  0  0  0  0  0  0  0  0  0
    2.3132   -0.0896    1.6039 C   0  0  0  0  0  0  0  0  0  0  0  0
    1.0990    0.5733    2.2538 C   0  0  0  0  0  0  0  0  0  0  0  0
    3.2791   -0.6204   -0.8800 S   0  0  0  0  0  0  0  0  0  0  0  0
    2.7353   -0.8272   -2.2065 O   0  0  0  0  0  0  0  0  0  0  0  0
    4.2464    0.4292   -0.6335 O   0  0  0  0  0  0  0  0  0  0  0  0
    4.0268   -2.1565   -0.3781 C   0  0  0  0  0  0  0  0  0  0  0  0
    3.6181   -3.3492   -0.9850 C   0  0  0  0  0  0  0  0  0  0  0  0
    4.2590   -4.5430   -0.6558 C   0  0  0  0  0  0  0  0  0  0  0  0
    5.3126   -4.5413    0.2607 C   0  0  0  0  0  0  0  0  0  0  0  0
    5.7334   -3.3407    0.8391 C   0  0  0  0  0  0  0  0  0  0  0  0
    5.0895   -2.1438    0.5301 C   0  0  0  0  0  0  0  0  0  0  0  0
    6.7989   -3.3477    1.7998 N   0  0  0  0  0  0  0  0  0  0  0  0
    6.2734   -3.3406    3.4217 S   0  0  0  0  0  0  0  0  0  0  0  0
    5.2958   -2.2928    3.6187 O   0  0  0  0  0  0  0  0  0  0  0  0
    6.0031   -4.7183    3.7700 O   0  0  0  0  0  0  0  0  0  0  0  0
    7.7483   -2.8424    4.2454 C   0  0  0  0  0  0  0  0  0  0  0  0
    8.4579   -3.7550    5.0061 C   0  0  0  0  0  0  0  0  0  0  0  0
    9.5897   -3.4345    5.6784 N   0  0  0  0  0  0  0  0  0  0  0  0
   10.0002   -2.1498    5.5965 C   0  0  0  0  0  0  0  0  0  0  0  0
    9.3509   -1.1663    4.8659 C   0  0  0  0  0  0  0  0  0  0  0  0
    8.1945   -1.5223    4.1736 C   0  0  0  0  0  0  0  0  0  0  0  0
   11.4229   -1.7962    6.4844 Cl  0  0  0  0  0  0  0  0  0  0  0  0
    0.0165   -1.2141    2.7781 H   0  0  0  0  0  0  0  0  0  0  0  0
   -1.0094    0.2052    2.5612 H   0  0  0  0  0  0  0  0  0  0  0  0
   -0.7039    0.1323    0.1315 H   0  0  0  0  0  0  0  0  0  0  0  0
   -1.2279   -1.4591    0.6883 H   0  0  0  0  0  0  0  0  0  0  0  0
    0.6273   -1.5932   -0.9637 H   0  0  0  0  0  0  0  0  0  0  0  0
    1.0907   -2.3097    0.5920 H   0  0  0  0  0  0  0  0  0  0  0  0
    3.1537    0.6092    1.6517 H   0  0  0  0  0  0  0  0  0  0  0  0
    2.5883   -0.9967    2.1523 H   0  0  0  0  0  0  0  0  0  0  0  0
    0.8905    1.5293    1.7563 H   0  0  0  0  0  0  0  0  0  0  0  0
    1.3128    0.7961    3.3050 H   0  0  0  0  0  0  0  0  0  0  0  0
    2.8149   -3.3530   -1.7202 H   0  0  0  0  0  0  0  0  0  0  0  0
    3.9412   -5.4748   -1.1178 H   0  0  0  0  0  0  0  0  0  0  0  0
    5.7918   -5.4839    0.5142 H   0  0  0  0  0  0  0  0  0  0  0  0
    5.4193   -1.2108    0.9815 H   0  0  0  0  0  0  0  0  0  0  0  0
    7.3918   -4.1712    1.6737 H   0  0  0  0  0  0  0  0  0  0  0  0
    8.1504   -4.7931    5.1073 H   0  0  0  0  0  0  0  0  0  0  0  0
    9.7294   -0.1499    4.8368 H   0  0  0  0  0  0  0  0  0  0  0  0
    7.6564   -0.7804    3.5879 H   0  0  0  0  0  0  0  0  0  0  0  0
  1  2  1  0  0  0  0
  1  6  1  0  0  0  0
  1 27  1  0  0  0  0
  1 28  1  0  0  0  0
  2  3  1  0  0  0  0
  2 29  1  0  0  0  0
  2 30  1  0  0  0  0
  3  4  1  0  0  0  0
  3 31  1  0  0  0  0
  3 32  1  0  0  0  0
  4  5  1  0  0  0  0
  4  7  1  0  0  0  0
  5  6  1  0  0  0  0
  5 33  1  0  0  0  0
  5 34  1  0  0  0  0
  6 35  1  0  0  0  0
  6 36  1  0  0  0  0
  7  8  2  0  0  0  0
  7  9  2  0  0  0  0
  7 10  1  0  0  0  0
 10 11  2  0  0  0  0
 10 15  1  0  0  0  0
 11 12  1  0  0  0  0
 11 37  1  0  0  0  0
 12 13  2  0  0  0  0
 12 38  1  0  0  0  0
 13 14  1  0  0  0  0
 13 39  1  0  0  0  0
 14 15  2  0  0  0  0
 14 16  1  0  0  0  0
 15 40  1  0  0  0  0
 16 17  1  0  0  0  0
 16 41  1  0  0  0  0
 17 18  2  0  0  0  0
 17 19  2  0  0  0  0
 17 20  1  0  0  0  0
 20 21  2  0  0  0  0
 20 25  1  0  0  0  0
 21 22  1  0  0  0  0
 21 42  1  0  0  0  0
 22 23  2  0  0  0  0
 23 24  1  0  0  0  0
 23 26  1  0  0  0  0
 24 25  2  0  0  0  0
 24 43  1  0  0  0  0
 25 44  1  0  0  0  0
M  END
