
 OpenBabel10072620163D

 49 50  0  0  0  0  0  0  0  0999 V2000
   -2.0658    1.4898   -0.9274 C   0  0  0  0  0  0  0  0  0  0  0  0
   -1.1038    0.6599   -0.0452 C   0  0  0  0  0  0  0  0  0  0  0  0
   -1.4214   -0.8286   -0.2736 C   0  0  0  0  0  0  0  0  0  0  0  0
   -0.3378   -1.7564    0.2778 C   0  0  0  0  0  0  0  0  0  0  0  0
    1.0084   -1.3697   -0.3360 C   0  0  0  0  0  0  0  0  0  0  0  0
    1.3658    0.1095   -0.0894 C   0  0  0  0  0  0  0  0  0  0  0  0
    0.2644    1.0141   -0.4674 N   0  0  0  0  0  0  0  0  0  0  0  0
    2.5648    0.4748   -0.9960 C   0  0  0  0  0  0  0  0  0  0  0  0
    1.8263    0.3472    1.3604 C   0  0  0  0  0  0  0  0  0  0  0  0
   -0.6588   -3.1552   -0.0478 N   0  0  0  0  0  0  0  0  0  0  0  0
   -1.4468   -4.0048    0.6758 C   0  0  0  0  0  0  0  0  0  0  0  0
   -2.1339   -3.6767    2.1649 S   0  0  0  0  0  0  0  0  0  0  0  0
   -1.7485   -5.2087    0.1061 N   0  0  0  0  0  0  0  0  0  0  0  0
   -1.1649   -5.9266   -0.9549 C   0  0  0  0  0  0  0  0  0  0  0  0
    0.1327   -5.7138   -1.4227 C   0  0  0  0  0  0  0  0  0  0  0  0
    0.6509   -6.4896   -2.4693 C   0  0  0  0  0  0  0  0  0  0  0  0
   -0.1212   -7.4978   -3.0440 C   0  0  0  0  0  0  0  0  0  0  0  0
   -1.4140   -7.7186   -2.5697 C   0  0  0  0  0  0  0  0  0  0  0  0
   -1.9265   -6.9520   -1.5205 C   0  0  0  0  0  0  0  0  0  0  0  0
    0.2562   -8.3145   -4.0708 O   0  0  0  0  0  0  0  0  0  0  0  0
    1.6491   -8.4338   -4.2995 C   0  0  0  0  0  0  0  0  0  0  0  0
    1.8288   -9.4672   -5.1611 F   0  0  0  0  0  0  0  0  0  0  0  0
    2.0921   -7.3186   -4.9302 F   0  0  0  0  0  0  0  0  0  0  0  0
   -1.3745    1.0684    1.4132 C   0  0  0  0  0  0  0  0  0  0  0  0
   -1.9356    1.2617   -1.9923 H   0  0  0  0  0  0  0  0  0  0  0  0
   -1.9041    2.5660   -0.7960 H   0  0  0  0  0  0  0  0  0  0  0  0
   -3.1120    1.2779   -0.6773 H   0  0  0  0  0  0  0  0  0  0  0  0
   -1.5327   -1.0225   -1.3503 H   0  0  0  0  0  0  0  0  0  0  0  0
   -2.3937   -1.0764    0.1703 H   0  0  0  0  0  0  0  0  0  0  0  0
   -0.2775   -1.6658    1.3649 H   0  0  0  0  0  0  0  0  0  0  0  0
    0.9764   -1.5675   -1.4170 H   0  0  0  0  0  0  0  0  0  0  0  0
    1.7969   -2.0217    0.0621 H   0  0  0  0  0  0  0  0  0  0  0  0
    0.2710    1.1271   -1.4826 H   0  0  0  0  0  0  0  0  0  0  0  0
    2.3258    0.3396   -2.0578 H   0  0  0  0  0  0  0  0  0  0  0  0
    3.4327   -0.1574   -0.7740 H   0  0  0  0  0  0  0  0  0  0  0  0
    2.8699    1.5189   -0.8535 H   0  0  0  0  0  0  0  0  0  0  0  0
    1.1276   -0.0370    2.1046 H   0  0  0  0  0  0  0  0  0  0  0  0
    1.9770    1.4153    1.5584 H   0  0  0  0  0  0  0  0  0  0  0  0
    2.7832   -0.1543    1.5503 H   0  0  0  0  0  0  0  0  0  0  0  0
   -0.6529   -3.3614   -1.0375 H   0  0  0  0  0  0  0  0  0  0  0  0
   -2.5192   -5.6713    0.5772 H   0  0  0  0  0  0  0  0  0  0  0  0
    0.7881   -4.9807   -0.9611 H   0  0  0  0  0  0  0  0  0  0  0  0
    1.6577   -6.2686   -2.8115 H   0  0  0  0  0  0  0  0  0  0  0  0
   -2.0297   -8.4956   -3.0167 H   0  0  0  0  0  0  0  0  0  0  0  0
   -2.9373   -7.1525   -1.1739 H   0  0  0  0  0  0  0  0  0  0  0  0
    2.2290   -8.6258   -3.3902 H   0  0  0  0  0  0  0  0  0  0  0  0
   -2.4475    1.0250    1.6360 H   0  0  0  0  0  0  0  0  0  0  0  0
   -1.0455    2.0959    1.6067 H   0  0  0  0  0  0  0  0  0  0  0  0
   -0.8871    0.4169    2.1397 H   0  0  0  0  0  0  0  0  0  0  0  0
  1  2  1  0  0  0  0
  1 25  1  0  0  0  0
  1 26  1  0  0  0  0
  1 27  1  0  0  0  0
  2  3  1  0  0  0  0
  2  7  1  0  0  0  0
  2 24  1  0  0  0  0
  3  4  1  0  0  0  0
  3 28  1  0  0  0  0
  3 29  1  0  0  0  0
  4  5  1  0  0  0  0
  4 10  1  0  0  0  0
  4 30  1  0  0  0  0
  5  6  1  0  0  0  0
  5 31  1  0  0  0  0
  5 32  1  0  0  0  0
  6  7  1  0  0  0  0
  6  8  1  0  0  0  0
  6  9  1  0  0  0  0
  7 33  1  0  0  0  0
  8 34  1  0  0  0  0
  8 35  1  0  0  0  0
  8 36  1  0  0  0  0
  9 37  1  0  0  0  0
  9 38  1  0  0  0  0
  9 39  1  0  0  0  0
 10 11  1  0  0  0  0
 10 40  1  0  0  0  0
 11 12  2  0  0  0  0
 11 13  1  0  0  0  0
 13 14  1  0  0  0  0
 13 41  1  0  0  0  0
 14 15  2  0  0  0  0
 14 19  1  0  0  0  0
 15 16  1  0  0  0  0
 15 42  1  0  0  0  0
 16 17  2  0  0  0  0
 16 43  1  0  0  0  0
 17 18  1  0  0  0  0
 17 20  1  0  0  0  0
 18 19  2  0  0  0  0
 18 44  1  0  0  0  0
 19 45  1  0  0  0  0
 20 21  1  0  0  0  0
 21 22  1  0  0  0  0
 21 23  1  0  0  0  0
 21 46  1  0  0  0  0
 24 47  1  0  0  0  0
 24 48  1  0  0  0  0
 24 49  1  0  0  0  0
M  END
