
 OpenBabel10072620033D

 36 37  0  0  0  0  0  0  0  0999 V2000
   -1.4940   -0.5298    1.3587 C   0  0  0  0  0  0  0  0  0  0  0  0
   -0.5643    0.4933    1.5687 C   0  0  0  0  0  0  0  0  0  0  0  0
    0.0272    1.1054    0.4714 C   0  0  0  0  0  0  0  0  0  0  0  0
   -0.2980    0.7018   -0.8203 C   0  0  0  0  0  0  0  0  0  0  0  0
   -1.2182   -0.3150   -1.0379 C   0  0  0  0  0  0  0  0  0  0  0  0
   -1.8319   -0.9387    0.0573 C   0  0  0  0  0  0  0  0  0  0  0  0
   -2.8220   -2.0579   -0.1535 C   0  0  0  0  0  0  0  0  0  0  0  0
   -2.1456   -3.4301   -0.0910 C   0  0  0  0  0  0  0  0  0  0  0  0
   -3.0843   -4.5261   -0.3339 N   0  0  0  0  0  0  0  0  0  0  0  0
   -3.8901   -5.1685    0.6005 C   0  0  0  0  0  0  0  0  0  0  0  0
   -3.9105   -4.7779    2.2248 S   0  0  0  0  0  0  0  0  0  0  0  0
   -4.5825   -6.1924   -0.0295 N   0  0  0  0  0  0  0  0  0  0  0  0
   -5.6549   -7.0218    0.3893 C   0  0  0  0  0  0  0  0  0  0  0  0
   -5.8700   -8.2273   -0.3106 C   0  0  0  0  0  0  0  0  0  0  0  0
   -6.9102   -9.0946    0.0328 C   0  0  0  0  0  0  0  0  0  0  0  0
   -7.7623   -8.7526    1.0764 C   0  0  0  0  0  0  0  0  0  0  0  0
   -7.5896   -7.5528    1.7598 C   0  0  0  0  0  0  0  0  0  0  0  0
   -6.5457   -6.6865    1.4111 C   0  0  0  0  0  0  0  0  0  0  0  0
   -9.0480   -9.8082    1.5116 Cl  0  0  0  0  0  0  0  0  0  0  0  0
   -4.8399   -8.6846   -1.6282 Cl  0  0  0  0  0  0  0  0  0  0  0  0
    0.2892    1.3112   -1.8924 O   0  0  0  0  0  0  0  0  0  0  0  0
    0.9405    2.1137    0.6119 O   0  0  0  0  0  0  0  0  0  0  0  0
   -1.9598   -1.0087    2.2187 H   0  0  0  0  0  0  0  0  0  0  0  0
   -0.3220    0.7914    2.5834 H   0  0  0  0  0  0  0  0  0  0  0  0
   -1.4535   -0.6091   -2.0565 H   0  0  0  0  0  0  0  0  0  0  0  0
   -3.3203   -1.9301   -1.1232 H   0  0  0  0  0  0  0  0  0  0  0  0
   -3.6196   -1.9810    0.5956 H   0  0  0  0  0  0  0  0  0  0  0  0
   -1.6465   -3.5808    0.8721 H   0  0  0  0  0  0  0  0  0  0  0  0
   -1.3755   -3.5082   -0.8678 H   0  0  0  0  0  0  0  0  0  0  0  0
   -3.3043   -4.6938   -1.3062 H   0  0  0  0  0  0  0  0  0  0  0  0
   -4.1115   -6.5427   -0.8582 H   0  0  0  0  0  0  0  0  0  0  0  0
   -7.0528  -10.0247   -0.5082 H   0  0  0  0  0  0  0  0  0  0  0  0
   -8.2670   -7.2750    2.5644 H   0  0  0  0  0  0  0  0  0  0  0  0
   -6.4824   -5.7434    1.9427 H   0  0  0  0  0  0  0  0  0  0  0  0
    0.8762    1.9852   -1.4953 H   0  0  0  0  0  0  0  0  0  0  0  0
    1.0411    2.2973    1.5618 H   0  0  0  0  0  0  0  0  0  0  0  0
  1  2  2  0  0  0  0
  1  6  1  0  0  0  0
  1 23  1  0  0  0  0
  2  3  1  0  0  0  0
  2 24  1  0  0  0  0
  3  4  2  0  0  0  0
  3 22  1  0  0  0  0
  4  5  1  0  0  0  0
  4 21  1  0  0  0  0
  5  6  2  0  0  0  0
  5 25  1  0  0  0  0
  6  7  1  0  0  0  0
  7  8  1  0  0  0  0
  7 26  1  0  0  0  0
  7 27  1  0  0  0  0
  8  9  1  0  0  0  0
  8 28  1  0  0  0  0
  8 29  1  0  0  0  0
  9 10  1  0  0  0  0
  9 30  1  0  0  0  0
 10 11  2  0  0  0  0
 10 12  1  0  0  0  0
 12 13  1  0  0  0  0
 12 31  1  0  0  0  0
 13 14  2  0  0  0  0
 13 18  1  0  0  0  0
 14 15  1  0  0  0  0
 14 20  1  0  0  0  0
 15 16  2  0  0  0  0
 15 32  1  0  0  0  0
 16 17  1  0  0  0  0
 16 19  1  0  0  0  0
 17 18  2  0  0  0  0
 17 33  1  0  0  0  0
 18 34  1  0  0  0  0
 21 35  1  0  0  0  0
 22 36  1  0  0  0  0
M  END
