
 OpenBabel10072616273D

 30 30  0  0  0  0  0  0  0  0999 V2000
    1.0743   -1.7935   -1.3523 C   0  0  0  0  0  0  0  0  0  0  0  0
    2.3887   -1.6428   -0.6007 C   0  0  0  0  0  0  0  0  0  0  0  0
    3.1512   -0.4698   -1.1106 N   0  0  0  0  0  0  0  0  0  0  0  0
    2.6482    0.8568   -0.6460 C   0  0  0  0  0  0  0  0  0  0  0  0
    2.9003    1.1171    0.8301 C   0  0  0  0  0  0  0  0  0  0  0  0
    4.8541   -0.6363   -1.1307 S   0  0  0  0  0  0  0  0  0  0  0  0
    5.4256    0.5891   -1.6459 O   0  0  0  0  0  0  0  0  0  0  0  0
    5.2493   -1.1796    0.1542 O   0  0  0  0  0  0  0  0  0  0  0  0
    5.1078   -1.8752   -2.3538 C   0  0  0  0  0  0  0  0  0  0  0  0
    4.7851   -1.5859   -3.6651 C   0  0  0  0  0  0  0  0  0  0  0  0
    4.9564   -2.4640   -4.6843 N   0  0  0  0  0  0  0  0  0  0  0  0
    5.4704   -3.6687   -4.3811 C   0  0  0  0  0  0  0  0  0  0  0  0
    5.8268   -4.0357   -3.0884 C   0  0  0  0  0  0  0  0  0  0  0  0
    5.6445   -3.1220   -2.0518 C   0  0  0  0  0  0  0  0  0  0  0  0
    5.6585   -4.5501   -5.4397 N   0  0  0  0  0  0  0  0  0  0  0  0
    0.5979   -2.7451   -1.0885 H   0  0  0  0  0  0  0  0  0  0  0  0
    1.2332   -1.7791   -2.4358 H   0  0  0  0  0  0  0  0  0  0  0  0
    0.3747   -0.9899   -1.1030 H   0  0  0  0  0  0  0  0  0  0  0  0
    2.9623   -2.5611   -0.7531 H   0  0  0  0  0  0  0  0  0  0  0  0
    2.2090   -1.5609    0.4748 H   0  0  0  0  0  0  0  0  0  0  0  0
    1.5744    0.9383   -0.8539 H   0  0  0  0  0  0  0  0  0  0  0  0
    3.1194    1.6446   -1.2459 H   0  0  0  0  0  0  0  0  0  0  0  0
    2.3564    0.4095    1.4635 H   0  0  0  0  0  0  0  0  0  0  0  0
    2.5616    2.1252    1.0910 H   0  0  0  0  0  0  0  0  0  0  0  0
    3.9622    1.0505    1.0826 H   0  0  0  0  0  0  0  0  0  0  0  0
    4.3758   -0.6214   -3.9529 H   0  0  0  0  0  0  0  0  0  0  0  0
    6.2611   -5.0109   -2.8960 H   0  0  0  0  0  0  0  0  0  0  0  0
    5.9315   -3.3827   -1.0377 H   0  0  0  0  0  0  0  0  0  0  0  0
    5.3143   -4.0886   -6.2780 H   0  0  0  0  0  0  0  0  0  0  0  0
    5.1885   -5.4333   -5.2801 H   0  0  0  0  0  0  0  0  0  0  0  0
  1  2  1  0  0  0  0
  1 16  1  0  0  0  0
  1 17  1  0  0  0  0
  1 18  1  0  0  0  0
  2  3  1  0  0  0  0
  2 19  1  0  0  0  0
  2 20  1  0  0  0  0
  3  4  1  0  0  0  0
  3  6  1  0  0  0  0
  4  5  1  0  0  0  0
  4 21  1  0  0  0  0
  4 22  1  0  0  0  0
  5 23  1  0  0  0  0
  5 24  1  0  0  0  0
  5 25  1  0  0  0  0
  6  7  2  0  0  0  0
  6  8  2  0  0  0  0
  6  9  1  0  0  0  0
  9 10  2  0  0  0  0
  9 14  1  0  0  0  0
 10 11  1  0  0  0  0
 10 26  1  0  0  0  0
 11 12  2  0  0  0  0
 12 13  1  0  0  0  0
 12 15  1  0  0  0  0
 13 14  2  0  0  0  0
 13 27  1  0  0  0  0
 14 28  1  0  0  0  0
 15 29  1  0  0  0  0
 15 30  1  0  0  0  0
M  END
