
 OpenBabel10072620223D

 74 78  0  0  1  0  0  0  0  0999 V2000
    0.8945   -0.0187    0.2746 C   0  0  0  0  0  0  0  0  0  0  0  0
    2.3028   -0.3778    0.7176 C   0  0  0  0  0  0  0  0  0  0  0  0
    2.6306    0.3161    2.0407 C   0  0  0  0  0  0  0  0  0  0  0  0
    3.9848   -0.0972    2.6076 C   0  0  0  0  0  0  0  0  0  0  0  0
    5.0155    0.2699    1.6862 O   0  0  0  0  0  0  0  0  0  0  0  0
    6.2630    0.3736    2.2475 C   0  0  0  0  0  0  0  0  0  0  0  0
    7.1194    1.3553    1.7313 C   0  0  0  0  0  0  0  0  0  0  0  0
    8.3995    1.5061    2.2692 C   0  0  0  0  0  0  0  0  0  0  0  0
    8.8604    0.6628    3.2976 C   0  0  0  0  0  0  0  0  0  0  0  0
    7.9910   -0.3111    3.8065 C   0  0  0  0  0  0  0  0  0  0  0  0
    6.7034   -0.4531    3.2874 C   0  0  0  0  0  0  0  0  0  0  0  0
   10.2995    0.7437    3.8078 C   0  0  3  0  0  0  0  0  0  0  0  0
   10.7712    2.1453    4.1530 C   0  0  0  0  0  0  0  0  0  0  0  0
   10.5250    2.7509    5.3370 C   0  0  0  0  0  0  0  0  0  0  0  0
   11.1468    4.1020    5.4959 C   0  0  0  0  0  0  0  0  0  0  0  0
   12.2544    4.2739    6.3450 C   0  0  0  0  0  0  0  0  0  0  0  0
   12.7952    5.5427    6.4867 C   0  0  0  0  0  0  0  0  0  0  0  0
   12.2695    6.6205    5.7909 C   0  0  0  0  0  0  0  0  0  0  0  0
   11.1888    6.4876    4.9457 C   0  0  0  0  0  0  0  0  0  0  0  0
   10.6091    5.2213    4.8231 C   0  0  0  0  0  0  0  0  0  0  0  0
   12.9114    7.8081    6.0400 O   0  0  0  0  0  0  0  0  0  0  0  0
   13.7182    7.5164    7.2108 C   0  0  3  0  0  0  0  0  0  0  0  0
   13.9658    5.9992    7.2686 C   0  0  0  0  0  0  0  0  0  0  0  0
   15.0034    8.3271    7.1303 C   0  0  0  0  0  0  0  0  0  0  0  0
    9.8644    2.2556    6.2976 O   0  5  0  0  0  0  0  0  0  0  0  0
   11.6072    2.5908    3.0009 C   0  0  0  0  0  0  0  0  0  0  0  0
   11.7947    3.6948    2.5301 O   0  0  0  0  0  0  0  0  0  0  0  0
   11.9880    1.3229    2.2473 C   0  0  0  0  0  0  0  0  0  0  0  0
   12.7493    1.2573    1.3001 O   0  0  0  0  0  0  0  0  0  0  0  0
   11.2066    0.3085    2.7411 N   0  0  0  0  0  0  0  0  0  0  0  0
   11.2889   -1.0642    2.2953 C   0  0  0  0  0  0  0  0  0  0  0  0
   10.6615   -1.3454    0.9429 C   0  0  0  0  0  0  0  0  0  0  0  0
   10.1978   -0.3412    0.0948 C   0  0  0  0  0  0  0  0  0  0  0  0
    9.6814   -0.6377   -1.1059 N   0  3  0  0  0  0  0  0  0  0  0  0
    9.5960   -1.8942   -1.5619 C   0  0  0  0  0  0  0  0  0  0  0  0
   10.0499   -2.9415   -0.7759 C   0  0  0  0  0  0  0  0  0  0  0  0
   10.5859   -2.6655    0.4802 C   0  0  0  0  0  0  0  0  0  0  0  0
    6.6882    2.1085    0.6648 O   0  0  0  0  0  0  0  0  0  0  0  0
    6.9644    3.5105    0.8087 C   0  0  0  0  0  0  0  0  0  0  0  0
    6.0642    4.2777   -0.1435 C   0  0  0  0  0  0  0  0  0  0  0  0
    0.6594   -0.4808   -0.6875 H   0  0  0  0  0  0  0  0  0  0  0  0
    0.7781    1.0650    0.1806 H   0  0  0  0  0  0  0  0  0  0  0  0
    0.1598   -0.3771    1.0023 H   0  0  0  0  0  0  0  0  0  0  0  0
    3.0252   -0.0844   -0.0547 H   0  0  0  0  0  0  0  0  0  0  0  0
    2.3717   -1.4662    0.8311 H   0  0  0  0  0  0  0  0  0  0  0  0
    1.8569    0.0861    2.7838 H   0  0  0  0  0  0  0  0  0  0  0  0
    2.6237    1.4030    1.8826 H   0  0  0  0  0  0  0  0  0  0  0  0
    4.0058   -1.1823    2.7672 H   0  0  0  0  0  0  0  0  0  0  0  0
    4.1130    0.4161    3.5705 H   0  0  0  0  0  0  0  0  0  0  0  0
    9.0603    2.2780    1.8877 H   0  0  0  0  0  0  0  0  0  0  0  0
    8.3075   -0.9559    4.6258 H   0  0  0  0  0  0  0  0  0  0  0  0
    6.0653   -1.2184    3.7179 H   0  0  0  0  0  0  0  0  0  0  0  0
   10.4620    0.0600    4.6514 H   0  0  0  0  0  0  0  0  0  0  0  0
   12.6519    3.4246    6.8908 H   0  0  0  0  0  0  0  0  0  0  0  0
   10.7873    7.3355    4.4064 H   0  0  0  0  0  0  0  0  0  0  0  0
    9.7324    5.0826    4.1980 H   0  0  0  0  0  0  0  0  0  0  0  0
   13.1415    7.8440    8.0873 H   0  0  0  0  0  0  0  0  0  0  0  0
   13.9813    5.6297    8.2976 H   0  0  0  0  0  0  0  0  0  0  0  0
   14.8901    5.7162    6.7549 H   0  0  0  0  0  0  0  0  0  0  0  0
   15.5481    8.1102    6.2048 H   0  0  0  0  0  0  0  0  0  0  0  0
   15.6592    8.1243    7.9823 H   0  0  0  0  0  0  0  0  0  0  0  0
   14.7743    9.3989    7.1119 H   0  0  0  0  0  0  0  0  0  0  0  0
   10.8398   -1.7062    3.0633 H   0  0  0  0  0  0  0  0  0  0  0  0
   12.3535   -1.3158    2.2227 H   0  0  0  0  0  0  0  0  0  0  0  0
   10.2235    0.7155    0.3257 H   0  0  0  0  0  0  0  0  0  0  0  0
    9.3406    0.1308   -1.6835 H   0  0  0  0  0  0  0  0  0  0  0  0
    9.1622   -2.0333   -2.5454 H   0  0  0  0  0  0  0  0  0  0  0  0
    9.9863   -3.9653   -1.1340 H   0  0  0  0  0  0  0  0  0  0  0  0
   10.9572   -3.4840    1.0973 H   0  0  0  0  0  0  0  0  0  0  0  0
    8.0088    3.7080    0.5389 H   0  0  0  0  0  0  0  0  0  0  0  0
    6.7723    3.8511    1.8344 H   0  0  0  0  0  0  0  0  0  0  0  0
    6.2135    3.9362   -1.1729 H   0  0  0  0  0  0  0  0  0  0  0  0
    6.2667    5.3525   -0.0937 H   0  0  0  0  0  0  0  0  0  0  0  0
    5.0125    4.1038    0.1048 H   0  0  0  0  0  0  0  0  0  0  0  0
  1  2  1  0  0  0  0
  1 41  1  0  0  0  0
  1 42  1  0  0  0  0
  1 43  1  0  0  0  0
  2  3  1  0  0  0  0
  2 44  1  0  0  0  0
  2 45  1  0  0  0  0
  3  4  1  0  0  0  0
  3 46  1  0  0  0  0
  3 47  1  0  0  0  0
  4  5  1  0  0  0  0
  4 48  1  0  0  0  0
  4 49  1  0  0  0  0
  5  6  1  0  0  0  0
  6  7  2  0  0  0  0
  6 11  1  0  0  0  0
  7  8  1  0  0  0  0
  7 38  1  0  0  0  0
  8  9  2  0  0  0  0
  8 50  1  0  0  0  0
  9 10  1  0  0  0  0
  9 12  1  0  0  0  0
 10 11  2  0  0  0  0
 10 51  1  0  0  0  0
 11 52  1  0  0  0  0
 12 13  1  0  0  0  0
 12 30  1  0  0  0  0
 12 53  1  0  0  0  0
 13 14  2  0  0  0  0
 13 26  1  0  0  0  0
 14 15  1  0  0  0  0
 14 25  1  0  0  0  0
 15 16  2  0  0  0  0
 15 20  1  0  0  0  0
 16 17  1  0  0  0  0
 16 54  1  0  0  0  0
 17 18  2  0  0  0  0
 17 23  1  0  0  0  0
 18 19  1  0  0  0  0
 18 21  1  0  0  0  0
 19 20  2  0  0  0  0
 19 55  1  0  0  0  0
 20 56  1  0  0  0  0
 21 22  1  0  0  0  0
 22 23  1  0  0  0  0
 22 24  1  0  0  0  0
 22 57  1  0  0  0  0
 23 58  1  0  0  0  0
 23 59  1  0  0  0  0
 24 60  1  0  0  0  0
 24 61  1  0  0  0  0
 24 62  1  0  0  0  0
 26 27  2  0  0  0  0
 26 28  1  0  0  0  0
 28 29  2  0  0  0  0
 28 30  1  0  0  0  0
 30 31  1  0  0  0  0
 31 32  1  0  0  0  0
 31 63  1  0  0  0  0
 31 64  1  0  0  0  0
 32 33  2  0  0  0  0
 32 37  1  0  0  0  0
 33 34  1  0  0  0  0
 33 65  1  0  0  0  0
 34 35  2  0  0  0  0
 34 66  1  0  0  0  0
 35 36  1  0  0  0  0
 35 67  1  0  0  0  0
 36 37  2  0  0  0  0
 36 68  1  0  0  0  0
 37 69  1  0  0  0  0
 38 39  1  0  0  0  0
 39 40  1  0  0  0  0
 39 70  1  0  0  0  0
 39 71  1  0  0  0  0
 40 72  1  0  0  0  0
 40 73  1  0  0  0  0
 40 74  1  0  0  0  0
M  CHG  2  25  -1  34   1
M  END
