
 OpenBabel10072616323D

 35 36  0  0  0  0  0  0  0  0999 V2000
    1.1897    0.5945    0.7779 C   0  0  0  0  0  0  0  0  0  0  0  0
    2.6122    0.6080    0.7100 O   0  0  0  0  0  0  0  0  0  0  0  0
    3.2449   -0.4102    1.3677 C   0  0  0  0  0  0  0  0  0  0  0  0
    2.7213   -1.1159    2.4507 C   0  0  0  0  0  0  0  0  0  0  0  0
    3.4555   -2.1560    3.0305 C   0  0  0  0  0  0  0  0  0  0  0  0
    4.7209   -2.4951    2.5367 C   0  0  0  0  0  0  0  0  0  0  0  0
    5.2587   -1.7554    1.4781 C   0  0  0  0  0  0  0  0  0  0  0  0
    4.5238   -0.7168    0.9012 C   0  0  0  0  0  0  0  0  0  0  0  0
    5.5195   -3.5698    3.1282 C   0  0  0  0  0  0  0  0  0  0  0  0
    5.0053   -4.7672    3.4461 C   0  0  0  0  0  0  0  0  0  0  0  0
    5.9085   -5.8175    3.9561 C   0  0  0  0  0  0  0  0  0  0  0  0
    7.0812   -5.6534    4.2495 O   0  0  0  0  0  0  0  0  0  0  0  0
    5.1875   -6.9960    3.9927 O   0  0  0  0  0  0  0  0  0  0  0  0
    6.0192   -8.1127    4.1110 C   0  0  0  0  0  0  0  0  0  0  0  0
    6.6994   -8.5489    2.9672 C   0  0  0  0  0  0  0  0  0  0  0  0
    7.4889   -9.6955    3.0272 C   0  0  0  0  0  0  0  0  0  0  0  0
    7.5730  -10.4190    4.2179 C   0  0  0  0  0  0  0  0  0  0  0  0
    6.8846   -9.9893    5.3574 C   0  0  0  0  0  0  0  0  0  0  0  0
    6.1040   -8.8283    5.3075 C   0  0  0  0  0  0  0  0  0  0  0  0
    5.3873   -8.3822    6.5183 C   0  0  0  0  0  0  0  0  0  0  0  0
    5.4081   -9.0271    7.5607 O   0  0  0  0  0  0  0  0  0  0  0  0
    0.8170    1.2978    0.0274 H   0  0  0  0  0  0  0  0  0  0  0  0
    0.8397    0.9332    1.7589 H   0  0  0  0  0  0  0  0  0  0  0  0
    0.7840   -0.3944    0.5340 H   0  0  0  0  0  0  0  0  0  0  0  0
    1.7538   -0.8694    2.8757 H   0  0  0  0  0  0  0  0  0  0  0  0
    3.0319   -2.6854    3.8810 H   0  0  0  0  0  0  0  0  0  0  0  0
    6.2462   -1.9849    1.0826 H   0  0  0  0  0  0  0  0  0  0  0  0
    4.9460   -0.1499    0.0748 H   0  0  0  0  0  0  0  0  0  0  0  0
    6.5804   -3.3624    3.2595 H   0  0  0  0  0  0  0  0  0  0  0  0
    3.9646   -5.0214    3.2875 H   0  0  0  0  0  0  0  0  0  0  0  0
    6.6263   -7.9930    2.0365 H   0  0  0  0  0  0  0  0  0  0  0  0
    8.0313  -10.0266    2.1436 H   0  0  0  0  0  0  0  0  0  0  0  0
    8.1806  -11.3199    4.2576 H   0  0  0  0  0  0  0  0  0  0  0  0
    6.9626  -10.5619    6.2807 H   0  0  0  0  0  0  0  0  0  0  0  0
    4.8231   -7.4384    6.4527 H   0  0  0  0  0  0  0  0  0  0  0  0
  1  2  1  0  0  0  0
  1 22  1  0  0  0  0
  1 23  1  0  0  0  0
  1 24  1  0  0  0  0
  2  3  1  0  0  0  0
  3  4  2  0  0  0  0
  3  8  1  0  0  0  0
  4  5  1  0  0  0  0
  4 25  1  0  0  0  0
  5  6  2  0  0  0  0
  5 26  1  0  0  0  0
  6  7  1  0  0  0  0
  6  9  1  0  0  0  0
  7  8  2  0  0  0  0
  7 27  1  0  0  0  0
  8 28  1  0  0  0  0
  9 10  2  0  0  0  0
  9 29  1  0  0  0  0
 10 11  1  0  0  0  0
 10 30  1  0  0  0  0
 11 12  2  0  0  0  0
 11 13  1  0  0  0  0
 13 14  1  0  0  0  0
 14 15  2  0  0  0  0
 14 19  1  0  0  0  0
 15 16  1  0  0  0  0
 15 31  1  0  0  0  0
 16 17  2  0  0  0  0
 16 32  1  0  0  0  0
 17 18  1  0  0  0  0
 17 33  1  0  0  0  0
 18 19  2  0  0  0  0
 18 34  1  0  0  0  0
 19 20  1  0  0  0  0
 20 21  2  0  0  0  0
 20 35  1  0  0  0  0
M  END
