
 OpenBabel10072619483D

 56 57  0  0  1  0  0  0  0  0999 V2000
    4.2606   -1.2085   -0.9129 C   0  0  0  0  0  0  0  0  0  0  0  0
    2.9293   -1.8789   -0.7357 C   0  0  0  0  0  0  0  0  0  0  0  0
    2.2292   -1.7722    0.4692 C   0  0  0  0  0  0  0  0  0  0  0  0
    0.9833   -2.3959    0.6392 C   0  0  0  0  0  0  0  0  0  0  0  0
    0.4206   -3.1126   -0.4405 C   0  0  0  0  0  0  0  0  0  0  0  0
    1.1132   -3.2307   -1.6593 C   0  0  0  0  0  0  0  0  0  0  0  0
    2.3635   -2.6042   -1.7913 C   0  0  0  0  0  0  0  0  0  0  0  0
    0.6156   -4.0967   -2.7825 C   0  0  0  0  0  0  0  0  0  0  0  0
   -0.8169   -3.7881   -0.2572 N   0  0  0  0  0  0  0  0  0  0  0  0
   -2.0535   -3.2386   -0.6096 C   0  0  0  0  0  0  0  0  0  0  0  0
   -2.2521   -1.8032   -1.4726 S   0  0  0  0  0  0  0  0  0  0  0  0
   -3.1364   -4.0048   -0.1065 N   0  0  0  0  0  0  0  0  0  0  0  0
   -4.4338   -3.3631    0.1974 C   0  0  0  0  0  0  0  0  0  0  0  0
   -5.4726   -3.4352   -0.9410 C   0  0  0  0  0  0  0  0  0  0  0  0
   -6.7722   -2.8497   -0.5495 N   0  0  0  0  0  0  0  0  0  0  0  0
   -6.7057   -1.3839   -0.5055 C   0  0  0  0  0  0  0  0  0  0  0  0
   -7.8163   -3.2559   -1.4940 C   0  0  0  0  0  0  0  0  0  0  0  0
   -3.1215   -5.4972   -0.0398 C   0  0  3  0  0  0  0  0  0  0  0  0
   -2.8933   -6.1019   -1.4348 C   0  0  0  0  0  0  0  0  0  0  0  0
   -2.2491   -6.0379    1.0811 C   0  0  0  0  0  0  0  0  0  0  0  0
   -1.1697   -6.8930    0.8646 C   0  0  0  0  0  0  0  0  0  0  0  0
   -0.3540   -7.3592    1.8399 N   0  0  0  0  0  0  0  0  0  0  0  0
   -0.6169   -6.9586    3.1005 C   0  0  0  0  0  0  0  0  0  0  0  0
   -1.6622   -6.1171    3.4325 C   0  0  0  0  0  0  0  0  0  0  0  0
   -2.4923   -5.6605    2.4114 C   0  0  0  0  0  0  0  0  0  0  0  0
    0.2723   -2.2385    1.9569 C   0  0  0  0  0  0  0  0  0  0  0  0
    4.6535   -0.8429    0.0420 H   0  0  0  0  0  0  0  0  0  0  0  0
    4.1679   -0.3569   -1.5947 H   0  0  0  0  0  0  0  0  0  0  0  0
    4.9910   -1.9166   -1.3180 H   0  0  0  0  0  0  0  0  0  0  0  0
    2.6602   -1.1959    1.2869 H   0  0  0  0  0  0  0  0  0  0  0  0
    2.9146   -2.6942   -2.7262 H   0  0  0  0  0  0  0  0  0  0  0  0
    0.7315   -5.1514   -2.5129 H   0  0  0  0  0  0  0  0  0  0  0  0
    1.1818   -3.9192   -3.7031 H   0  0  0  0  0  0  0  0  0  0  0  0
   -0.4328   -3.8962   -3.0129 H   0  0  0  0  0  0  0  0  0  0  0  0
   -0.8948   -4.1484    0.6860 H   0  0  0  0  0  0  0  0  0  0  0  0
   -4.2446   -2.3254    0.4869 H   0  0  0  0  0  0  0  0  0  0  0  0
   -4.8353   -3.8471    1.0962 H   0  0  0  0  0  0  0  0  0  0  0  0
   -5.6199   -4.4955   -1.1814 H   0  0  0  0  0  0  0  0  0  0  0  0
   -5.0919   -2.9688   -1.8570 H   0  0  0  0  0  0  0  0  0  0  0  0
   -5.9908   -1.0354    0.2459 H   0  0  0  0  0  0  0  0  0  0  0  0
   -7.6763   -0.9666   -0.2131 H   0  0  0  0  0  0  0  0  0  0  0  0
   -6.4274   -0.9555   -1.4752 H   0  0  0  0  0  0  0  0  0  0  0  0
   -7.9275   -4.3461   -1.4999 H   0  0  0  0  0  0  0  0  0  0  0  0
   -7.6018   -2.9219   -2.5156 H   0  0  0  0  0  0  0  0  0  0  0  0
   -8.7862   -2.8458   -1.1899 H   0  0  0  0  0  0  0  0  0  0  0  0
   -4.1399   -5.8082    0.2345 H   0  0  0  0  0  0  0  0  0  0  0  0
   -1.8977   -5.8767   -1.8294 H   0  0  0  0  0  0  0  0  0  0  0  0
   -3.6233   -5.7073   -2.1509 H   0  0  0  0  0  0  0  0  0  0  0  0
   -3.0081   -7.1918   -1.4167 H   0  0  0  0  0  0  0  0  0  0  0  0
   -0.8932   -7.2327   -0.1300 H   0  0  0  0  0  0  0  0  0  0  0  0
    0.0564   -7.3475    3.8597 H   0  0  0  0  0  0  0  0  0  0  0  0
   -1.8285   -5.8223    4.4634 H   0  0  0  0  0  0  0  0  0  0  0  0
   -3.3213   -5.0001    2.6562 H   0  0  0  0  0  0  0  0  0  0  0  0
    0.8585   -1.6380    2.6619 H   0  0  0  0  0  0  0  0  0  0  0  0
    0.1047   -3.2151    2.4214 H   0  0  0  0  0  0  0  0  0  0  0  0
   -0.6855   -1.7286    1.8138 H   0  0  0  0  0  0  0  0  0  0  0  0
  1  2  1  0  0  0  0
  1 27  1  0  0  0  0
  1 28  1  0  0  0  0
  1 29  1  0  0  0  0
  2  3  2  0  0  0  0
  2  7  1  0  0  0  0
  3  4  1  0  0  0  0
  3 30  1  0  0  0  0
  4  5  2  0  0  0  0
  4 26  1  0  0  0  0
  5  6  1  0  0  0  0
  5  9  1  0  0  0  0
  6  7  2  0  0  0  0
  6  8  1  0  0  0  0
  7 31  1  0  0  0  0
  8 32  1  0  0  0  0
  8 33  1  0  0  0  0
  8 34  1  0  0  0  0
  9 10  1  0  0  0  0
  9 35  1  0  0  0  0
 10 11  2  0  0  0  0
 10 12  1  0  0  0  0
 12 13  1  0  0  0  0
 12 18  1  0  0  0  0
 13 14  1  0  0  0  0
 13 36  1  0  0  0  0
 13 37  1  0  0  0  0
 14 15  1  0  0  0  0
 14 38  1  0  0  0  0
 14 39  1  0  0  0  0
 15 16  1  0  0  0  0
 15 17  1  0  0  0  0
 16 40  1  0  0  0  0
 16 41  1  0  0  0  0
 16 42  1  0  0  0  0
 17 43  1  0  0  0  0
 17 44  1  0  0  0  0
 17 45  1  0  0  0  0
 18 19  1  0  0  0  0
 18 20  1  0  0  0  0
 18 46  1  0  0  0  0
 19 47  1  0  0  0  0
 19 48  1  0  0  0  0
 19 49  1  0  0  0  0
 20 21  2  0  0  0  0
 20 25  1  0  0  0  0
 21 22  1  0  0  0  0
 21 50  1  0  0  0  0
 22 23  2  0  0  0  0
 23 24  1  0  0  0  0
 23 51  1  0  0  0  0
 24 25  2  0  0  0  0
 24 52  1  0  0  0  0
 25 53  1  0  0  0  0
 26 54  1  0  0  0  0
 26 55  1  0  0  0  0
 26 56  1  0  0  0  0
M  END
