
 OpenBabel10072620073D

 30 30  0  0  0  0  0  0  0  0999 V2000
    2.0987    1.5177    0.9689 C   0  0  0  0  0  0  0  0  0  0  0  0
    2.3469    0.2128    0.2288 C   0  0  0  0  0  0  0  0  0  0  0  0
    3.0256   -0.7922    1.0538 N   0  0  0  0  0  0  0  0  0  0  0  0
    2.1743   -1.6573    1.8778 C   0  0  0  0  0  0  0  0  0  0  0  0
    2.0962   -1.2156    3.3317 C   0  0  0  0  0  0  0  0  0  0  0  0
    4.4256   -0.7374    1.0923 C   0  0  0  0  0  0  0  0  0  0  0  0
    5.0413    0.1091    0.4475 O   0  0  0  0  0  0  0  0  0  0  0  0
    5.0230   -1.6852    1.8936 N   0  0  0  0  0  0  0  0  0  0  0  0
    6.3951   -1.8427    2.1824 C   0  0  0  0  0  0  0  0  0  0  0  0
    7.4014   -0.9967    1.7099 C   0  0  0  0  0  0  0  0  0  0  0  0
    8.7399   -1.2217    2.0538 C   0  0  0  0  0  0  0  0  0  0  0  0
    9.0774   -2.2932    2.8746 C   0  0  0  0  0  0  0  0  0  0  0  0
    8.0872   -3.1443    3.3551 C   0  0  0  0  0  0  0  0  0  0  0  0
    6.7511   -2.9185    3.0093 C   0  0  0  0  0  0  0  0  0  0  0  0
   10.7216   -2.5661    3.2989 Cl  0  0  0  0  0  0  0  0  0  0  0  0
    1.6628    2.2596    0.2922 H   0  0  0  0  0  0  0  0  0  0  0  0
    3.0286    1.9287    1.3743 H   0  0  0  0  0  0  0  0  0  0  0  0
    1.4025    1.3760    1.8000 H   0  0  0  0  0  0  0  0  0  0  0  0
    2.9562    0.4208   -0.6583 H   0  0  0  0  0  0  0  0  0  0  0  0
    1.4028   -0.2032   -0.1399 H   0  0  0  0  0  0  0  0  0  0  0  0
    2.5529   -2.6830    1.8202 H   0  0  0  0  0  0  0  0  0  0  0  0
    1.1671   -1.6839    1.4469 H   0  0  0  0  0  0  0  0  0  0  0  0
    3.0816   -1.1964    3.8065 H   0  0  0  0  0  0  0  0  0  0  0  0
    1.4619   -1.9037    3.8996 H   0  0  0  0  0  0  0  0  0  0  0  0
    1.6681   -0.2137    3.4204 H   0  0  0  0  0  0  0  0  0  0  0  0
    4.4194   -2.3762    2.3000 H   0  0  0  0  0  0  0  0  0  0  0  0
    7.1808   -0.1468    1.0717 H   0  0  0  0  0  0  0  0  0  0  0  0
    9.5075   -0.5519    1.6754 H   0  0  0  0  0  0  0  0  0  0  0  0
    8.3453   -3.9813    3.9980 H   0  0  0  0  0  0  0  0  0  0  0  0
    5.9950   -3.5960    3.3981 H   0  0  0  0  0  0  0  0  0  0  0  0
  1  2  1  0  0  0  0
  1 16  1  0  0  0  0
  1 17  1  0  0  0  0
  1 18  1  0  0  0  0
  2  3  1  0  0  0  0
  2 19  1  0  0  0  0
  2 20  1  0  0  0  0
  3  4  1  0  0  0  0
  3  6  1  0  0  0  0
  4  5  1  0  0  0  0
  4 21  1  0  0  0  0
  4 22  1  0  0  0  0
  5 23  1  0  0  0  0
  5 24  1  0  0  0  0
  5 25  1  0  0  0  0
  6  7  2  0  0  0  0
  6  8  1  0  0  0  0
  8  9  1  0  0  0  0
  8 26  1  0  0  0  0
  9 10  2  0  0  0  0
  9 14  1  0  0  0  0
 10 11  1  0  0  0  0
 10 27  1  0  0  0  0
 11 12  2  0  0  0  0
 11 28  1  0  0  0  0
 12 13  1  0  0  0  0
 12 15  1  0  0  0  0
 13 14  2  0  0  0  0
 13 29  1  0  0  0  0
 14 30  1  0  0  0  0
M  END
