
 OpenBabel10072619543D

157164  0  0  1  0  0  0  0  0999 V2000
    9.3936    0.2646    4.0756 C   0  0  0  0  0  0  0  0  0  0  0  0
    7.8967    0.5325    4.1511 C   0  0  1  0  0  0  0  0  0  0  0  0
    7.1283   -0.1846    3.0339 C   0  0  0  0  0  0  0  0  0  0  0  0
    5.7388    0.0984    3.2295 O   0  0  0  0  0  0  0  0  0  0  0  0
    4.8279   -0.3843    2.2307 C   0  0  2  0  0  0  0  0  0  0  0  0
    4.6297   -1.9290    2.3288 C   0  0  2  0  0  0  0  0  0  0  0  0
    4.2382   -2.4427    0.9296 C   0  0  1  0  0  0  0  0  0  0  0  0
    5.5015   -2.2252    0.0445 C   0  0  2  0  0  0  0  0  0  0  0  0
    6.0587   -0.8747    0.1661 O   0  0  0  0  0  0  0  0  0  0  0  0
    5.1167    0.0306    0.7544 C   0  0  2  0  0  0  0  0  0  0  0  0
    5.4407    1.4153    0.5659 O   0  0  0  0  0  0  0  0  0  0  0  0
    4.2272    2.1866    0.3903 C   0  0  2  0  0  0  0  0  0  0  0  0
    4.0091    2.6845   -1.0587 C   0  0  2  0  0  0  0  0  0  0  0  0
    2.6765    3.2200   -1.2434 O   0  0  0  0  0  0  0  0  0  0  0  0
    1.9993    3.5441   -0.0243 C   0  0  1  0  0  0  0  0  0  0  0  0
    2.9341    4.2992    0.9563 C   0  0  1  0  0  0  0  0  0  0  0  0
    4.1742    3.4271    1.3035 C   0  0  1  0  0  0  0  0  0  0  0  0
    4.0729    2.9681    2.6602 O   0  0  0  0  0  0  0  0  0  0  0  0
    3.3630    5.5489    0.3839 O   0  0  0  0  0  0  0  0  0  0  0  0
    0.7351    4.1894   -0.1780 O   0  0  0  0  0  0  0  0  0  0  0  0
    0.5479    5.0570   -1.3155 C   0  0  2  0  0  0  0  0  0  0  0  0
   -0.4677    6.1409   -0.8560 C   0  0  2  0  0  0  0  0  0  0  0  0
   -1.8655    5.7778   -0.8218 O   0  0  0  0  0  0  0  0  0  0  0  0
   -2.2112    4.5261   -1.4040 C   0  0  1  0  0  0  0  0  0  0  0  0
   -1.4752    4.2853   -2.7259 C   0  0  1  0  0  0  0  0  0  0  0  0
    0.0466    4.2210   -2.5103 C   0  0  1  0  0  0  0  0  0  0  0  0
    0.7221    4.6280   -3.7118 O   0  0  0  0  0  0  0  0  0  0  0  0
   -1.9122    3.0617   -3.3499 O   0  0  0  0  0  0  0  0  0  0  0  0
   -1.8887    3.5014   -0.4992 O   0  0  0  0  0  0  0  0  0  0  0  0
   -2.8430    2.5916    0.0530 C   0  0  2  0  0  0  0  0  0  0  0  0
   -4.3364    2.9769    0.2288 C   0  0  2  0  0  0  0  0  0  0  0  0
   -5.0030    2.2131    1.2742 O   0  0  0  0  0  0  0  0  0  0  0  0
   -4.3636    0.9708    1.5853 C   0  0  1  0  0  0  0  0  0  0  0  0
   -3.0051    1.2606    2.2413 C   0  0  1  0  0  0  0  0  0  0  0  0
   -2.2590    2.3383    1.4615 C   0  0  1  0  0  0  0  0  0  0  0  0
   -0.8600    1.9989    1.3285 O   0  0  0  0  0  0  0  0  0  0  0  0
   -3.1815    1.7214    3.6027 O   0  0  0  0  0  0  0  0  0  0  0  0
   -5.1757    0.2650    2.5345 O   0  0  0  0  0  0  0  0  0  0  0  0
   -5.6930   -1.0229    2.1416 C   0  0  2  0  0  0  0  0  0  0  0  0
   -4.6360   -2.1466    2.1912 C   0  0  2  0  0  0  0  0  0  0  0  0
   -5.1405   -3.3972    1.6678 O   0  0  0  0  0  0  0  0  0  0  0  0
   -5.6113   -3.2748    0.3172 C   0  0  1  0  0  0  0  0  0  0  0  0
   -6.8629   -2.3574    0.3211 C   0  0  1  0  0  0  0  0  0  0  0  0
   -6.4637   -0.9601    0.8115 C   0  0  1  0  0  0  0  0  0  0  0  0
   -7.6189   -0.1165    1.0015 O   0  0  0  0  0  0  0  0  0  0  0  0
   -7.4522   -2.2510   -0.9834 O   0  0  0  0  0  0  0  0  0  0  0  0
   -4.5289   -2.7836   -0.4703 O   0  0  0  0  0  0  0  0  0  0  0  0
   -4.6266   -2.9754   -1.8882 C   0  0  2  0  0  0  0  0  0  0  0  0
   -3.9983   -4.3307   -2.3190 C   0  0  2  0  0  0  0  0  0  0  0  0
   -2.7063   -4.1852   -2.9378 O   0  0  0  0  0  0  0  0  0  0  0  0
   -1.8269   -3.3114   -2.2309 C   0  0  1  0  0  0  0  0  0  0  0  0
   -2.3800   -1.8514   -2.1836 C   0  0  1  0  0  0  0  0  0  0  0  0
   -3.8852   -1.7934   -2.5283 C   0  0  1  0  0  0  0  0  0  0  0  0
   -4.0696   -1.8209   -3.9538 O   0  0  0  0  0  0  0  0  0  0  0  0
   -2.0804   -1.1493   -0.9693 O   0  0  0  0  0  0  0  0  0  0  0  0
   -1.5193   -3.8758   -0.9501 O   0  0  0  0  0  0  0  0  0  0  0  0
   -0.1391   -3.7825   -0.5647 C   0  0  2  0  0  0  0  0  0  0  0  0
    0.6779   -5.0813   -0.7964 C   0  0  2  0  0  0  0  0  0  0  0  0
    2.0472   -5.0199   -0.2963 O   0  0  0  0  0  0  0  0  0  0  0  0
    2.3712   -3.7826    0.3400 C   0  0  2  0  0  0  0  0  0  0  0  0
    3.7241   -3.7859    0.8612 O   0  0  0  0  0  0  0  0  0  0  0  0
    1.3553   -3.4917    1.4714 C   0  0  1  0  0  0  0  0  0  0  0  0
   -0.0898   -3.5045    0.9479 C   0  0  1  0  0  0  0  0  0  0  0  0
   -0.7088   -2.2264    1.1950 O   0  0  0  0  0  0  0  0  0  0  0  0
    1.4739   -4.4876    2.5013 O   0  0  0  0  0  0  0  0  0  0  0  0
    0.7729   -5.4770   -2.2700 C   0  0  0  0  0  0  0  0  0  0  0  0
    1.5396   -6.6748   -2.4042 O   0  0  0  0  0  0  0  0  0  0  0  0
   -4.8896   -5.0610   -3.3468 C   0  0  0  0  0  0  0  0  0  0  0  0
   -5.3155   -4.2272   -4.4237 O   0  0  0  0  0  0  0  0  0  0  0  0
   -4.1967   -2.4149    3.6418 C   0  0  0  0  0  0  0  0  0  0  0  0
   -5.2850   -2.9142    4.4198 O   0  0  0  0  0  0  0  0  0  0  0  0
   -5.2167    2.8206   -1.0232 C   0  0  0  0  0  0  0  0  0  0  0  0
   -5.2533    1.4684   -1.4637 O   0  0  0  0  0  0  0  0  0  0  0  0
   -0.3482    7.4435   -1.6606 C   0  0  0  0  0  0  0  0  0  0  0  0
   -1.0079    7.3520   -2.9183 O   0  0  0  0  0  0  0  0  0  0  0  0
    4.2745    1.6231   -2.1344 C   0  0  0  0  0  0  0  0  0  0  0  0
    5.6489    1.2719   -2.2340 O   0  0  0  0  0  0  0  0  0  0  0  0
    5.2257   -2.5100   -1.4309 C   0  0  0  0  0  0  0  0  0  0  0  0
    6.4077   -2.2920   -2.1938 O   0  0  0  0  0  0  0  0  0  0  0  0
    3.6142   -2.2142    3.2916 O   0  0  0  0  0  0  0  0  0  0  0  0
    7.4205    0.0792    5.4232 O   0  0  0  0  0  0  0  0  0  0  0  0
    9.9166    0.7870    4.8835 H   0  0  0  0  0  0  0  0  0  0  0  0
    9.6307   -0.7982    4.2062 H   0  0  0  0  0  0  0  0  0  0  0  0
    9.8032    0.5921    3.1156 H   0  0  0  0  0  0  0  0  0  0  0  0
    7.6914    1.6085    4.0979 H   0  0  0  0  0  0  0  0  0  0  0  0
    7.4697    0.1702    2.0569 H   0  0  0  0  0  0  0  0  0  0  0  0
    7.2908   -1.2621    3.1262 H   0  0  0  0  0  0  0  0  0  0  0  0
    3.8850    0.1048    2.5034 H   0  0  0  0  0  0  0  0  0  0  0  0
    5.5298   -2.4471    2.6765 H   0  0  0  0  0  0  0  0  0  0  0  0
    3.4302   -1.7878    0.5978 H   0  0  0  0  0  0  0  0  0  0  0  0
    6.3047   -2.9027    0.3635 H   0  0  0  0  0  0  0  0  0  0  0  0
    4.2182   -0.1210    0.1522 H   0  0  0  0  0  0  0  0  0  0  0  0
    3.3753    1.5569    0.6857 H   0  0  0  0  0  0  0  0  0  0  0  0
    4.7202    3.4990   -1.2539 H   0  0  0  0  0  0  0  0  0  0  0  0
    1.7066    2.5964    0.4372 H   0  0  0  0  0  0  0  0  0  0  0  0
    2.3865    4.5535    1.8684 H   0  0  0  0  0  0  0  0  0  0  0  0
    5.1111    3.9911    1.2241 H   0  0  0  0  0  0  0  0  0  0  0  0
    4.3170    3.7114    3.2416 H   0  0  0  0  0  0  0  0  0  0  0  0
    3.5007    5.4169   -0.5729 H   0  0  0  0  0  0  0  0  0  0  0  0
    1.5085    5.5335   -1.5443 H   0  0  0  0  0  0  0  0  0  0  0  0
   -0.2182    6.3976    0.1837 H   0  0  0  0  0  0  0  0  0  0  0  0
   -3.2816    4.5652   -1.5927 H   0  0  0  0  0  0  0  0  0  0  0  0
   -1.7202    5.0798   -3.4352 H   0  0  0  0  0  0  0  0  0  0  0  0
    0.3286    3.1711   -2.3683 H   0  0  0  0  0  0  0  0  0  0  0  0
    0.2542    4.2102   -4.4593 H   0  0  0  0  0  0  0  0  0  0  0  0
   -1.8189    2.3537   -2.6816 H   0  0  0  0  0  0  0  0  0  0  0  0
   -2.7529    1.6759   -0.5414 H   0  0  0  0  0  0  0  0  0  0  0  0
   -4.3936    4.0284    0.5324 H   0  0  0  0  0  0  0  0  0  0  0  0
   -4.2124    0.3906    0.6705 H   0  0  0  0  0  0  0  0  0  0  0  0
   -2.4278    0.3346    2.3148 H   0  0  0  0  0  0  0  0  0  0  0  0
   -2.2725    3.2832    2.0247 H   0  0  0  0  0  0  0  0  0  0  0  0
   -0.4996    2.7298    0.7931 H   0  0  0  0  0  0  0  0  0  0  0  0
   -4.0681    1.4342    3.8807 H   0  0  0  0  0  0  0  0  0  0  0  0
   -6.4457   -1.2474    2.9063 H   0  0  0  0  0  0  0  0  0  0  0  0
   -3.7403   -1.8537    1.6328 H   0  0  0  0  0  0  0  0  0  0  0  0
   -5.8842   -4.2797   -0.0295 H   0  0  0  0  0  0  0  0  0  0  0  0
   -7.6240   -2.7630    0.9979 H   0  0  0  0  0  0  0  0  0  0  0  0
   -5.8916   -0.4865    0.0201 H   0  0  0  0  0  0  0  0  0  0  0  0
   -7.3297    0.6293    1.5833 H   0  0  0  0  0  0  0  0  0  0  0  0
   -8.1848   -2.8842   -1.0393 H   0  0  0  0  0  0  0  0  0  0  0  0
   -5.6717   -2.9523   -2.2034 H   0  0  0  0  0  0  0  0  0  0  0  0
   -3.8681   -4.9952   -1.4549 H   0  0  0  0  0  0  0  0  0  0  0  0
   -0.9142   -3.2874   -2.8350 H   0  0  0  0  0  0  0  0  0  0  0  0
   -1.8592   -1.2826   -2.9644 H   0  0  0  0  0  0  0  0  0  0  0  0
   -4.3086   -0.8485   -2.1603 H   0  0  0  0  0  0  0  0  0  0  0  0
   -4.4025   -0.9454   -4.2156 H   0  0  0  0  0  0  0  0  0  0  0  0
   -1.8448   -1.8136   -0.2873 H   0  0  0  0  0  0  0  0  0  0  0  0
    0.3209   -2.9296   -1.0825 H   0  0  0  0  0  0  0  0  0  0  0  0
    0.1982   -5.9140   -0.2658 H   0  0  0  0  0  0  0  0  0  0  0  0
    2.3237   -3.0246   -0.4536 H   0  0  0  0  0  0  0  0  0  0  0  0
    1.5761   -2.5313    1.9467 H   0  0  0  0  0  0  0  0  0  0  0  0
   -0.7077   -4.2393    1.4814 H   0  0  0  0  0  0  0  0  0  0  0  0
   -0.6909   -2.1012    2.1628 H   0  0  0  0  0  0  0  0  0  0  0  0
    2.4323   -4.6585    2.6022 H   0  0  0  0  0  0  0  0  0  0  0  0
    1.2881   -4.6982   -2.8411 H   0  0  0  0  0  0  0  0  0  0  0  0
   -0.2121   -5.6583   -2.7059 H   0  0  0  0  0  0  0  0  0  0  0  0
    2.2674   -6.6062   -1.7574 H   0  0  0  0  0  0  0  0  0  0  0  0
   -4.3566   -5.9100   -3.7901 H   0  0  0  0  0  0  0  0  0  0  0  0
   -5.7942   -5.4378   -2.8586 H   0  0  0  0  0  0  0  0  0  0  0  0
   -4.5885   -3.6059   -4.6268 H   0  0  0  0  0  0  0  0  0  0  0  0
   -3.8186   -1.5087    4.1247 H   0  0  0  0  0  0  0  0  0  0  0  0
   -3.4128   -3.1798    3.6673 H   0  0  0  0  0  0  0  0  0  0  0  0
   -5.5497   -3.7510    3.9990 H   0  0  0  0  0  0  0  0  0  0  0  0
   -6.2418    3.1323   -0.7870 H   0  0  0  0  0  0  0  0  0  0  0  0
   -4.8805    3.4236   -1.8676 H   0  0  0  0  0  0  0  0  0  0  0  0
   -6.1603    1.1440   -1.2792 H   0  0  0  0  0  0  0  0  0  0  0  0
    0.6969    7.7145   -1.8341 H   0  0  0  0  0  0  0  0  0  0  0  0
   -0.8207    8.2647   -1.1098 H   0  0  0  0  0  0  0  0  0  0  0  0
   -1.9626    7.4020   -2.7280 H   0  0  0  0  0  0  0  0  0  0  0  0
    3.9533    1.9897   -3.1173 H   0  0  0  0  0  0  0  0  0  0  0  0
    3.6910    0.7185   -1.9380 H   0  0  0  0  0  0  0  0  0  0  0  0
    6.0444    1.2597   -1.3343 H   0  0  0  0  0  0  0  0  0  0  0  0
    4.4511   -1.8389   -1.8157 H   0  0  0  0  0  0  0  0  0  0  0  0
    4.9069   -3.5455   -1.5907 H   0  0  0  0  0  0  0  0  0  0  0  0
    6.7382   -1.4080   -1.9503 H   0  0  0  0  0  0  0  0  0  0  0  0
    3.9630   -1.9250    4.1584 H   0  0  0  0  0  0  0  0  0  0  0  0
    6.4466    0.1799    5.3884 H   0  0  0  0  0  0  0  0  0  0  0  0
  1  2  1  0  0  0  0
  1 82  1  0  0  0  0
  1 83  1  0  0  0  0
  1 84  1  0  0  0  0
  2  3  1  0  0  0  0
  2 81  1  0  0  0  0
  2 85  1  6  0  0  0
  3  4  1  0  0  0  0
  3 86  1  0  0  0  0
  3 87  1  0  0  0  0
  4  5  1  0  0  0  0
  5  6  1  0  0  0  0
  5 10  1  0  0  0  0
  5 88  1  1  0  0  0
  6  7  1  0  0  0  0
  6 80  1  0  0  0  0
  6 89  1  1  0  0  0
  7  8  1  0  0  0  0
  7 61  1  0  0  0  0
  7 90  1  6  0  0  0
  8  9  1  0  0  0  0
  8 78  1  0  0  0  0
  8 91  1  1  0  0  0
  9 10  1  0  0  0  0
 10 11  1  0  0  0  0
 10 92  1  6  0  0  0
 11 12  1  0  0  0  0
 12 13  1  0  0  0  0
 12 17  1  0  0  0  0
 12 93  1  1  0  0  0
 13 14  1  0  0  0  0
 13 76  1  0  0  0  0
 13 94  1  6  0  0  0
 14 15  1  0  0  0  0
 15 16  1  0  0  0  0
 15 20  1  0  0  0  0
 15 95  1  1  0  0  0
 16 17  1  0  0  0  0
 16 19  1  0  0  0  0
 16 96  1  1  0  0  0
 17 18  1  0  0  0  0
 17 97  1  6  0  0  0
 18 98  1  0  0  0  0
 19 99  1  0  0  0  0
 20 21  1  0  0  0  0
 21 22  1  0  0  0  0
 21 26  1  0  0  0  0
 21100  1  6  0  0  0
 22 23  1  0  0  0  0
 22 74  1  0  0  0  0
 22101  1  1  0  0  0
 23 24  1  0  0  0  0
 24 25  1  0  0  0  0
 24 29  1  0  0  0  0
 24102  1  6  0  0  0
 25 26  1  0  0  0  0
 25 28  1  0  0  0  0
 25103  1  6  0  0  0
 26 27  1  0  0  0  0
 26104  1  1  0  0  0
 27105  1  0  0  0  0
 28106  1  0  0  0  0
 29 30  1  0  0  0  0
 30 31  1  0  0  0  0
 30 35  1  0  0  0  0
 30107  1  6  0  0  0
 31 32  1  0  0  0  0
 31 72  1  0  0  0  0
 31108  1  1  0  0  0
 32 33  1  0  0  0  0
 33 34  1  0  0  0  0
 33 38  1  0  0  0  0
 33109  1  6  0  0  0
 34 35  1  0  0  0  0
 34 37  1  0  0  0  0
 34110  1  1  0  0  0
 35 36  1  0  0  0  0
 35111  1  1  0  0  0
 36112  1  0  0  0  0
 37113  1  0  0  0  0
 38 39  1  0  0  0  0
 39 40  1  0  0  0  0
 39 44  1  0  0  0  0
 39114  1  1  0  0  0
 40 41  1  0  0  0  0
 40 70  1  0  0  0  0
 40115  1  6  0  0  0
 41 42  1  0  0  0  0
 42 43  1  0  0  0  0
 42 47  1  0  0  0  0
 42116  1  6  0  0  0
 43 44  1  0  0  0  0
 43 46  1  0  0  0  0
 43117  1  1  0  0  0
 44 45  1  0  0  0  0
 44118  1  6  0  0  0
 45119  1  0  0  0  0
 46120  1  0  0  0  0
 47 48  1  0  0  0  0
 48 49  1  0  0  0  0
 48 53  1  0  0  0  0
 48121  1  6  0  0  0
 49 50  1  0  0  0  0
 49 68  1  0  0  0  0
 49122  1  1  0  0  0
 50 51  1  0  0  0  0
 51 52  1  0  0  0  0
 51 56  1  0  0  0  0
 51123  1  6  0  0  0
 52 53  1  0  0  0  0
 52 55  1  0  0  0  0
 52124  1  6  0  0  0
 53 54  1  0  0  0  0
 53125  1  1  0  0  0
 54126  1  0  0  0  0
 55127  1  0  0  0  0
 56 57  1  0  0  0  0
 57 58  1  0  0  0  0
 57 63  1  0  0  0  0
 57128  1  6  0  0  0
 58 59  1  0  0  0  0
 58 66  1  0  0  0  0
 58129  1  1  0  0  0
 59 60  1  0  0  0  0
 60 61  1  0  0  0  0
 60 62  1  0  0  0  0
 60130  1  6  0  0  0
 62 63  1  0  0  0  0
 62 65  1  0  0  0  0
 62131  1  1  0  0  0
 63 64  1  0  0  0  0
 63132  1  1  0  0  0
 64133  1  0  0  0  0
 65134  1  0  0  0  0
 66 67  1  0  0  0  0
 66135  1  0  0  0  0
 66136  1  0  0  0  0
 67137  1  0  0  0  0
 68 69  1  0  0  0  0
 68138  1  0  0  0  0
 68139  1  0  0  0  0
 69140  1  0  0  0  0
 70 71  1  0  0  0  0
 70141  1  0  0  0  0
 70142  1  0  0  0  0
 71143  1  0  0  0  0
 72 73  1  0  0  0  0
 72144  1  0  0  0  0
 72145  1  0  0  0  0
 73146  1  0  0  0  0
 74 75  1  0  0  0  0
 74147  1  0  0  0  0
 74148  1  0  0  0  0
 75149  1  0  0  0  0
 76 77  1  0  0  0  0
 76150  1  0  0  0  0
 76151  1  0  0  0  0
 77152  1  0  0  0  0
 78 79  1  0  0  0  0
 78153  1  0  0  0  0
 78154  1  0  0  0  0
 79155  1  0  0  0  0
 80156  1  0  0  0  0
 81157  1  0  0  0  0
M  END
