
 OpenBabel10072619503D

 61 63  0  0  0  0  0  0  0  0999 V2000
    8.0623   -1.0724    3.0611 C   0  0  0  0  0  0  0  0  0  0  0  0
    6.7617   -0.7361    3.7402 C   0  0  0  0  0  0  0  0  0  0  0  0
    6.6780    0.4690    4.4643 C   0  0  0  0  0  0  0  0  0  0  0  0
    5.5206    0.8055    5.1656 C   0  0  0  0  0  0  0  0  0  0  0  0
    4.4216   -0.0441    5.1282 C   0  0  0  0  0  0  0  0  0  0  0  0
    4.4933   -1.2443    4.4134 C   0  0  0  0  0  0  0  0  0  0  0  0
    5.6639   -1.6247    3.7443 C   0  0  0  0  0  0  0  0  0  0  0  0
    5.7741   -2.8410    3.0361 N   0  0  0  0  0  0  0  0  0  0  0  0
    5.1496   -4.0592    3.1747 C   0  0  0  0  0  0  0  0  0  0  0  0
    4.1047   -4.6036    4.3547 S   0  0  0  0  0  0  0  0  0  0  0  0
    5.4919   -4.9496    2.1714 N   0  0  0  0  0  0  0  0  0  0  0  0
    6.2204   -4.5795    1.0717 N   0  0  0  0  0  0  0  0  0  0  0  0
    6.0524   -5.2939   -0.0103 C   0  0  0  0  0  0  0  0  0  0  0  0
    6.8138   -4.8884   -1.2525 C   0  0  0  0  0  0  0  0  0  0  0  0
    5.1134   -6.4464   -0.1560 C   0  0  0  0  0  0  0  0  0  0  0  0
    5.0969   -7.3214    0.8827 N   0  0  0  0  0  0  0  0  0  0  0  0
    4.1829   -8.3272    0.8326 C   0  0  0  0  0  0  0  0  0  0  0  0
    3.3151   -8.4960   -0.2404 C   0  0  0  0  0  0  0  0  0  0  0  0
    3.3659   -7.5868   -1.2974 C   0  0  0  0  0  0  0  0  0  0  0  0
    4.2698   -6.5311   -1.2530 C   0  0  0  0  0  0  0  0  0  0  0  0
    4.1403   -9.2321    2.0336 C   0  0  0  0  0  0  0  0  0  0  0  0
    5.0711   -9.3975    2.9276 N   0  0  0  0  0  0  0  0  0  0  0  0
    6.2478   -8.7278    2.8051 N   0  0  0  0  0  0  0  0  0  0  0  0
    7.3216   -8.9404    3.6790 C   0  0  0  0  0  0  0  0  0  0  0  0
    7.2160   -9.9308    5.0290 S   0  0  0  0  0  0  0  0  0  0  0  0
    8.4233   -8.2006    3.2469 N   0  0  0  0  0  0  0  0  0  0  0  0
    9.8090   -8.3091    3.5225 C   0  0  0  0  0  0  0  0  0  0  0  0
   10.3819   -9.4435    4.1103 C   0  0  0  0  0  0  0  0  0  0  0  0
   11.7595   -9.5325    4.3249 C   0  0  0  0  0  0  0  0  0  0  0  0
   12.5928   -8.5007    3.9167 C   0  0  0  0  0  0  0  0  0  0  0  0
   12.0482   -7.3734    3.3051 C   0  0  0  0  0  0  0  0  0  0  0  0
   10.6596   -7.2569    3.1112 C   0  0  0  0  0  0  0  0  0  0  0  0
   10.1375   -5.9932    2.4820 C   0  0  0  0  0  0  0  0  0  0  0  0
    2.8794  -10.0419    2.2556 C   0  0  0  0  0  0  0  0  0  0  0  0
    8.7291   -0.2044    3.0338 H   0  0  0  0  0  0  0  0  0  0  0  0
    7.8977   -1.3792    2.0234 H   0  0  0  0  0  0  0  0  0  0  0  0
    8.5706   -1.8779    3.6018 H   0  0  0  0  0  0  0  0  0  0  0  0
    7.5279    1.1489    4.4960 H   0  0  0  0  0  0  0  0  0  0  0  0
    5.4764    1.7277    5.7397 H   0  0  0  0  0  0  0  0  0  0  0  0
    3.5055    0.2173    5.6539 H   0  0  0  0  0  0  0  0  0  0  0  0
    3.5964   -1.8522    4.3690 H   0  0  0  0  0  0  0  0  0  0  0  0
    6.5297   -2.9281    2.3661 H   0  0  0  0  0  0  0  0  0  0  0  0
    5.0615   -5.8754    2.2079 H   0  0  0  0  0  0  0  0  0  0  0  0
    6.1973   -4.2150   -1.8569 H   0  0  0  0  0  0  0  0  0  0  0  0
    7.0782   -5.7676   -1.8476 H   0  0  0  0  0  0  0  0  0  0  0  0
    7.7390   -4.3726   -0.9833 H   0  0  0  0  0  0  0  0  0  0  0  0
    2.5963   -9.3071   -0.2704 H   0  0  0  0  0  0  0  0  0  0  0  0
    2.6834   -7.6924   -2.1385 H   0  0  0  0  0  0  0  0  0  0  0  0
    4.2813   -5.7800   -2.0360 H   0  0  0  0  0  0  0  0  0  0  0  0
    6.3606   -8.1307    1.9900 H   0  0  0  0  0  0  0  0  0  0  0  0
    8.1679   -7.3972    2.6922 H   0  0  0  0  0  0  0  0  0  0  0  0
    9.7904  -10.3063    4.3921 H   0  0  0  0  0  0  0  0  0  0  0  0
   12.1718  -10.4190    4.8019 H   0  0  0  0  0  0  0  0  0  0  0  0
   13.6660   -8.5735    4.0705 H   0  0  0  0  0  0  0  0  0  0  0  0
   12.7172   -6.5771    2.9861 H   0  0  0  0  0  0  0  0  0  0  0  0
   10.9400   -5.2666    2.3167 H   0  0  0  0  0  0  0  0  0  0  0  0
    9.4051   -5.5182    3.1426 H   0  0  0  0  0  0  0  0  0  0  0  0
    9.6745   -6.2060    1.5124 H   0  0  0  0  0  0  0  0  0  0  0  0
    2.0074   -9.3822    2.2985 H   0  0  0  0  0  0  0  0  0  0  0  0
    2.9448  -10.5809    3.2061 H   0  0  0  0  0  0  0  0  0  0  0  0
    2.7610  -10.7793    1.4572 H   0  0  0  0  0  0  0  0  0  0  0  0
  1  2  1  0  0  0  0
  1 35  1  0  0  0  0
  1 36  1  0  0  0  0
  1 37  1  0  0  0  0
  2  3  2  0  0  0  0
  2  7  1  0  0  0  0
  3  4  1  0  0  0  0
  3 38  1  0  0  0  0
  4  5  2  0  0  0  0
  4 39  1  0  0  0  0
  5  6  1  0  0  0  0
  5 40  1  0  0  0  0
  6  7  2  0  0  0  0
  6 41  1  0  0  0  0
  7  8  1  0  0  0  0
  8  9  1  0  0  0  0
  8 42  1  0  0  0  0
  9 10  2  0  0  0  0
  9 11  1  0  0  0  0
 11 12  1  0  0  0  0
 11 43  1  0  0  0  0
 12 13  2  0  0  0  0
 13 14  1  0  0  0  0
 13 15  1  0  0  0  0
 14 44  1  0  0  0  0
 14 45  1  0  0  0  0
 14 46  1  0  0  0  0
 15 16  2  0  0  0  0
 15 20  1  0  0  0  0
 16 17  1  0  0  0  0
 17 18  2  0  0  0  0
 17 21  1  0  0  0  0
 18 19  1  0  0  0  0
 18 47  1  0  0  0  0
 19 20  2  0  0  0  0
 19 48  1  0  0  0  0
 20 49  1  0  0  0  0
 21 22  2  0  0  0  0
 21 34  1  0  0  0  0
 22 23  1  0  0  0  0
 23 24  1  0  0  0  0
 23 50  1  0  0  0  0
 24 25  2  0  0  0  0
 24 26  1  0  0  0  0
 26 27  1  0  0  0  0
 26 51  1  0  0  0  0
 27 28  2  0  0  0  0
 27 32  1  0  0  0  0
 28 29  1  0  0  0  0
 28 52  1  0  0  0  0
 29 30  2  0  0  0  0
 29 53  1  0  0  0  0
 30 31  1  0  0  0  0
 30 54  1  0  0  0  0
 31 32  2  0  0  0  0
 31 55  1  0  0  0  0
 32 33  1  0  0  0  0
 33 56  1  0  0  0  0
 33 57  1  0  0  0  0
 33 58  1  0  0  0  0
 34 59  1  0  0  0  0
 34 60  1  0  0  0  0
 34 61  1  0  0  0  0
M  END
