
 OpenBabel10072619543D

 54 58  0  0  1  0  0  0  0  0999 V2000
   -0.7233    7.4466   -4.8105 C   0  0  0  0  0  0  0  0  0  0  0  0
    0.0667    6.5432   -3.9108 C   0  0  0  0  0  0  0  0  0  0  0  0
   -0.5569    5.4925   -3.2256 C   0  0  0  0  0  0  0  0  0  0  0  0
    0.1896    4.6658   -2.3864 C   0  0  0  0  0  0  0  0  0  0  0  0
    1.5533    4.8905   -2.2071 C   0  0  0  0  0  0  0  0  0  0  0  0
    2.1857    5.9188   -2.9036 C   0  0  0  0  0  0  0  0  0  0  0  0
    1.4460    6.7391   -3.7564 C   0  0  0  0  0  0  0  0  0  0  0  0
   -0.4443    3.6099   -1.6777 N   0  0  0  0  0  0  0  0  0  0  0  0
   -0.8495    3.8530   -0.0545 S   0  0  0  0  0  0  0  0  0  0  0  0
   -1.4851    2.6268    0.3818 O   0  0  0  0  0  0  0  0  0  0  0  0
    0.2817    4.4032    0.6607 O   0  0  0  0  0  0  0  0  0  0  0  0
   -2.1194    5.0996   -0.1312 C   0  0  0  0  0  0  0  0  0  0  0  0
   -3.4601    4.7057   -0.2085 C   0  0  0  0  0  0  0  0  0  0  0  0
   -4.4725    5.6742   -0.2183 C   0  0  0  0  0  0  0  0  0  0  0  0
   -4.1393    7.0476   -0.1693 C   0  0  0  0  0  0  0  0  0  0  0  0
   -2.7870    7.4151   -0.1087 C   0  0  0  0  0  0  0  0  0  0  0  0
   -1.7772    6.4501   -0.0643 C   0  0  0  0  0  0  0  0  0  0  0  0
   -5.1123    8.0551   -0.2871 N   0  0  0  0  0  0  0  0  0  0  0  0
   -6.5515    7.7048   -0.2524 C   0  0  3  0  0  0  0  0  0  0  0  0
   -6.7393    6.3580    0.4353 C   0  0  3  0  0  0  0  0  0  0  0  0
   -5.9259    5.3232   -0.3548 C   0  0  3  0  0  0  0  0  0  0  0  0
   -6.5020    4.0617    0.2132 C   0  0  0  0  0  0  0  0  0  0  0  0
   -7.7547    4.2840    0.6418 C   0  0  0  0  0  0  0  0  0  0  0  0
   -8.1306    5.7347    0.5050 C   0  0  0  0  0  0  0  0  0  0  0  0
   -7.3283    8.8921    0.2842 C   0  0  0  0  0  0  0  0  0  0  0  0
   -7.5360    9.9972   -0.5656 C   0  0  0  0  0  0  0  0  0  0  0  0
   -8.2272   11.1300   -0.1258 C   0  0  0  0  0  0  0  0  0  0  0  0
   -8.7260   11.1812    1.1731 C   0  0  0  0  0  0  0  0  0  0  0  0
   -8.5230   10.1040    2.0306 C   0  0  0  0  0  0  0  0  0  0  0  0
   -7.8233    8.9815    1.5893 C   0  0  0  0  0  0  0  0  0  0  0  0
   -7.6376    7.9903    2.4698 F   0  0  0  0  0  0  0  0  0  0  0  0
   -1.7955    7.2326   -4.7494 H   0  0  0  0  0  0  0  0  0  0  0  0
   -0.4085    7.3143   -5.8503 H   0  0  0  0  0  0  0  0  0  0  0  0
   -0.5772    8.4911   -4.5169 H   0  0  0  0  0  0  0  0  0  0  0  0
   -1.6251    5.3312   -3.3435 H   0  0  0  0  0  0  0  0  0  0  0  0
    2.1311    4.2544   -1.5408 H   0  0  0  0  0  0  0  0  0  0  0  0
    3.2544    6.0784   -2.7820 H   0  0  0  0  0  0  0  0  0  0  0  0
    1.9503    7.5398   -4.2941 H   0  0  0  0  0  0  0  0  0  0  0  0
   -1.1638    3.0878   -2.1744 H   0  0  0  0  0  0  0  0  0  0  0  0
   -3.7149    3.6497   -0.2595 H   0  0  0  0  0  0  0  0  0  0  0  0
   -2.5077    8.4656   -0.1048 H   0  0  0  0  0  0  0  0  0  0  0  0
   -0.7352    6.7583   -0.0045 H   0  0  0  0  0  0  0  0  0  0  0  0
   -4.8756    8.8752    0.2679 H   0  0  0  0  0  0  0  0  0  0  0  0
   -6.8691    7.5776   -1.2975 H   0  0  0  0  0  0  0  0  0  0  0  0
   -6.3446    6.4190    1.4640 H   0  0  0  0  0  0  0  0  0  0  0  0
   -6.1659    5.3447   -1.4282 H   0  0  0  0  0  0  0  0  0  0  0  0
   -6.0219    3.0931    0.2100 H   0  0  0  0  0  0  0  0  0  0  0  0
   -8.4126    3.5248    1.0430 H   0  0  0  0  0  0  0  0  0  0  0  0
   -8.6895    6.0835    1.3761 H   0  0  0  0  0  0  0  0  0  0  0  0
   -8.7219    5.9094   -0.3993 H   0  0  0  0  0  0  0  0  0  0  0  0
   -7.1482    9.9806   -1.5838 H   0  0  0  0  0  0  0  0  0  0  0  0
   -8.3731   11.9725   -0.7983 H   0  0  0  0  0  0  0  0  0  0  0  0
   -9.2661   12.0585    1.5197 H   0  0  0  0  0  0  0  0  0  0  0  0
   -8.9000   10.1276    3.0488 H   0  0  0  0  0  0  0  0  0  0  0  0
  1  2  1  0  0  0  0
  1 32  1  0  0  0  0
  1 33  1  0  0  0  0
  1 34  1  0  0  0  0
  2  3  2  0  0  0  0
  2  7  1  0  0  0  0
  3  4  1  0  0  0  0
  3 35  1  0  0  0  0
  4  5  2  0  0  0  0
  4  8  1  0  0  0  0
  5  6  1  0  0  0  0
  5 36  1  0  0  0  0
  6  7  2  0  0  0  0
  6 37  1  0  0  0  0
  7 38  1  0  0  0  0
  8  9  1  0  0  0  0
  8 39  1  0  0  0  0
  9 10  2  0  0  0  0
  9 11  2  0  0  0  0
  9 12  1  0  0  0  0
 12 13  2  0  0  0  0
 12 17  1  0  0  0  0
 13 14  1  0  0  0  0
 13 40  1  0  0  0  0
 14 15  2  0  0  0  0
 14 21  1  0  0  0  0
 15 16  1  0  0  0  0
 15 18  1  0  0  0  0
 16 17  2  0  0  0  0
 16 41  1  0  0  0  0
 17 42  1  0  0  0  0
 18 19  1  0  0  0  0
 18 43  1  0  0  0  0
 19 20  1  0  0  0  0
 19 25  1  0  0  0  0
 19 44  1  0  0  0  0
 20 21  1  0  0  0  0
 20 24  1  0  0  0  0
 20 45  1  0  0  0  0
 21 22  1  0  0  0  0
 21 46  1  0  0  0  0
 22 23  2  0  0  0  0
 22 47  1  0  0  0  0
 23 24  1  0  0  0  0
 23 48  1  0  0  0  0
 24 49  1  0  0  0  0
 24 50  1  0  0  0  0
 25 26  2  0  0  0  0
 25 30  1  0  0  0  0
 26 27  1  0  0  0  0
 26 51  1  0  0  0  0
 27 28  2  0  0  0  0
 27 52  1  0  0  0  0
 28 29  1  0  0  0  0
 28 53  1  0  0  0  0
 29 30  2  0  0  0  0
 29 54  1  0  0  0  0
 30 31  1  0  0  0  0
M  END
