
 OpenBabel10072616323D

 36 36  0  0  0  0  0  0  0  0999 V2000
    0.8487    0.5430    0.1007 C   0  0  0  0  0  0  0  0  0  0  0  0
    2.1263    0.1286   -0.3731 O   0  0  0  0  0  0  0  0  0  0  0  0
    2.8736    1.0605   -1.0592 C   0  0  0  0  0  0  0  0  0  0  0  0
    2.4761    2.3812   -1.2892 C   0  0  0  0  0  0  0  0  0  0  0  0
    3.3069    3.2458   -1.9986 C   0  0  0  0  0  0  0  0  0  0  0  0
    4.5398    2.7967   -2.4767 C   0  0  0  0  0  0  0  0  0  0  0  0
    4.9343    1.4686   -2.2715 C   0  0  0  0  0  0  0  0  0  0  0  0
    4.1235    0.6024   -1.5400 C   0  0  0  0  0  0  0  0  0  0  0  0
    4.4284   -0.7605   -1.2967 N   0  0  0  0  0  0  0  0  0  0  0  0
    5.6098   -1.4802   -1.3303 C   0  0  0  0  0  0  0  0  0  0  0  0
    7.1621   -0.8648   -1.2660 S   0  0  0  0  0  0  0  0  0  0  0  0
    5.3100   -2.8381   -1.3749 N   0  0  0  0  0  0  0  0  0  0  0  0
    6.2345   -3.9639   -1.4177 C   0  0  0  0  0  0  0  0  0  0  0  0
    6.2634   -4.6291   -2.7894 C   0  0  0  0  0  0  0  0  0  0  0  0
    6.9051   -3.7703   -3.8703 C   0  0  0  0  0  0  0  0  0  0  0  0
    6.9726   -4.5159   -5.0818 O   0  0  0  0  0  0  0  0  0  0  0  0
    5.3738    3.5915   -3.2177 O   0  0  0  0  0  0  0  0  0  0  0  0
    6.1509    4.4459   -2.3745 C   0  0  0  0  0  0  0  0  0  0  0  0
    2.7556    4.8561   -2.2842 Cl  0  0  0  0  0  0  0  0  0  0  0  0
    0.4018   -0.2996    0.6364 H   0  0  0  0  0  0  0  0  0  0  0  0
    0.1850    0.7976   -0.7327 H   0  0  0  0  0  0  0  0  0  0  0  0
    0.9363    1.3737    0.8091 H   0  0  0  0  0  0  0  0  0  0  0  0
    1.5215    2.7590   -0.9354 H   0  0  0  0  0  0  0  0  0  0  0  0
    5.8626    1.1410   -2.7218 H   0  0  0  0  0  0  0  0  0  0  0  0
    3.6530   -1.2438   -0.8523 H   0  0  0  0  0  0  0  0  0  0  0  0
    4.3421   -3.0660   -1.5610 H   0  0  0  0  0  0  0  0  0  0  0  0
    5.8570   -4.6844   -0.6830 H   0  0  0  0  0  0  0  0  0  0  0  0
    7.2401   -3.6759   -1.1002 H   0  0  0  0  0  0  0  0  0  0  0  0
    5.2460   -4.8963   -3.1030 H   0  0  0  0  0  0  0  0  0  0  0  0
    6.8101   -5.5763   -2.7133 H   0  0  0  0  0  0  0  0  0  0  0  0
    7.9185   -3.4587   -3.5993 H   0  0  0  0  0  0  0  0  0  0  0  0
    6.3097   -2.8751   -4.0689 H   0  0  0  0  0  0  0  0  0  0  0  0
    7.6267   -5.2241   -4.9503 H   0  0  0  0  0  0  0  0  0  0  0  0
    7.1851    4.4277   -2.7346 H   0  0  0  0  0  0  0  0  0  0  0  0
    6.1545    4.1405   -1.3213 H   0  0  0  0  0  0  0  0  0  0  0  0
    5.7792    5.4708   -2.4544 H   0  0  0  0  0  0  0  0  0  0  0  0
  1  2  1  0  0  0  0
  1 20  1  0  0  0  0
  1 21  1  0  0  0  0
  1 22  1  0  0  0  0
  2  3  1  0  0  0  0
  3  4  2  0  0  0  0
  3  8  1  0  0  0  0
  4  5  1  0  0  0  0
  4 23  1  0  0  0  0
  5  6  2  0  0  0  0
  5 19  1  0  0  0  0
  6  7  1  0  0  0  0
  6 17  1  0  0  0  0
  7  8  2  0  0  0  0
  7 24  1  0  0  0  0
  8  9  1  0  0  0  0
  9 10  1  0  0  0  0
  9 25  1  0  0  0  0
 10 11  2  0  0  0  0
 10 12  1  0  0  0  0
 12 13  1  0  0  0  0
 12 26  1  0  0  0  0
 13 14  1  0  0  0  0
 13 27  1  0  0  0  0
 13 28  1  0  0  0  0
 14 15  1  0  0  0  0
 14 29  1  0  0  0  0
 14 30  1  0  0  0  0
 15 16  1  0  0  0  0
 15 31  1  0  0  0  0
 15 32  1  0  0  0  0
 16 33  1  0  0  0  0
 17 18  1  0  0  0  0
 18 34  1  0  0  0  0
 18 35  1  0  0  0  0
 18 36  1  0  0  0  0
M  END
