
 OpenBabel10072616323D

 36 37  0  0  0  0  0  0  0  0999 V2000
   -4.4269   -0.1033   -6.4351 C   0  0  0  0  0  0  0  0  0  0  0  0
   -4.1738   -0.2031   -4.9607 C   0  0  0  0  0  0  0  0  0  0  0  0
   -3.0324    0.3891   -4.4000 C   0  0  0  0  0  0  0  0  0  0  0  0
   -2.8312    0.3715   -3.0195 C   0  0  0  0  0  0  0  0  0  0  0  0
   -3.7779   -0.2481   -2.1994 C   0  0  0  0  0  0  0  0  0  0  0  0
   -4.8926   -0.8834   -2.7499 C   0  0  0  0  0  0  0  0  0  0  0  0
   -5.0951   -0.8502   -4.1283 C   0  0  0  0  0  0  0  0  0  0  0  0
   -3.5822   -0.2074   -0.4376 S   0  0  0  0  0  0  0  0  0  0  0  0
   -4.2116   -1.3653    0.1516 O   0  0  0  0  0  0  0  0  0  0  0  0
   -2.1933    0.1083   -0.1642 O   0  0  0  0  0  0  0  0  0  0  0  0
   -4.4253    1.1744   -0.0388 N   0  0  0  0  0  0  0  0  0  0  0  0
   -5.8029    1.3246   -0.1613 C   0  0  0  0  0  0  0  0  0  0  0  0
   -6.5284    0.4101   -0.5135 O   0  0  0  0  0  0  0  0  0  0  0  0
   -6.2157    2.6007    0.1227 N   0  0  0  0  0  0  0  0  0  0  0  0
   -7.5427    3.0991    0.1472 C   0  0  0  0  0  0  0  0  0  0  0  0
   -7.7446    4.4852    0.3042 C   0  0  0  0  0  0  0  0  0  0  0  0
   -9.0327    5.0285    0.3436 C   0  0  0  0  0  0  0  0  0  0  0  0
  -10.1386    4.1839    0.2144 C   0  0  0  0  0  0  0  0  0  0  0  0
   -9.9622    2.8072    0.0683 C   0  0  0  0  0  0  0  0  0  0  0  0
   -8.6687    2.2723    0.0427 C   0  0  0  0  0  0  0  0  0  0  0  0
  -11.4954    4.7417    0.2388 N   0  3  0  0  0  0  0  0  0  0  0  0
  -11.6159    5.9632    0.0695 O   0  0  0  0  0  0  0  0  0  0  0  0
  -12.4357    3.9581    0.4276 O   0  5  0  0  0  0  0  0  0  0  0  0
   -6.4010    5.5694    0.4474 Cl  0  0  0  0  0  0  0  0  0  0  0  0
   -3.4844   -0.1661   -6.9868 H   0  0  0  0  0  0  0  0  0  0  0  0
   -4.9177    0.8463   -6.6708 H   0  0  0  0  0  0  0  0  0  0  0  0
   -5.0680   -0.9208   -6.7791 H   0  0  0  0  0  0  0  0  0  0  0  0
   -2.2908    0.8654   -5.0387 H   0  0  0  0  0  0  0  0  0  0  0  0
   -1.9511    0.8547   -2.5999 H   0  0  0  0  0  0  0  0  0  0  0  0
   -5.6290   -1.3666   -2.1103 H   0  0  0  0  0  0  0  0  0  0  0  0
   -5.9775   -1.3307   -4.5470 H   0  0  0  0  0  0  0  0  0  0  0  0
   -3.8167    1.9055    0.3011 H   0  0  0  0  0  0  0  0  0  0  0  0
   -5.4892    3.2929    0.2427 H   0  0  0  0  0  0  0  0  0  0  0  0
   -9.1634    6.0983    0.4800 H   0  0  0  0  0  0  0  0  0  0  0  0
  -10.8148    2.1356   -0.0176 H   0  0  0  0  0  0  0  0  0  0  0  0
   -8.5858    1.1925   -0.0474 H   0  0  0  0  0  0  0  0  0  0  0  0
  1  2  1  0  0  0  0
  1 25  1  0  0  0  0
  1 26  1  0  0  0  0
  1 27  1  0  0  0  0
  2  3  2  0  0  0  0
  2  7  1  0  0  0  0
  3  4  1  0  0  0  0
  3 28  1  0  0  0  0
  4  5  2  0  0  0  0
  4 29  1  0  0  0  0
  5  6  1  0  0  0  0
  5  8  1  0  0  0  0
  6  7  2  0  0  0  0
  6 30  1  0  0  0  0
  7 31  1  0  0  0  0
  8  9  2  0  0  0  0
  8 10  2  0  0  0  0
  8 11  1  0  0  0  0
 11 12  1  0  0  0  0
 11 32  1  0  0  0  0
 12 13  2  0  0  0  0
 12 14  1  0  0  0  0
 14 15  1  0  0  0  0
 14 33  1  0  0  0  0
 15 16  2  0  0  0  0
 15 20  1  0  0  0  0
 16 17  1  0  0  0  0
 16 24  1  0  0  0  0
 17 18  2  0  0  0  0
 17 34  1  0  0  0  0
 18 19  1  0  0  0  0
 18 21  1  0  0  0  0
 19 20  2  0  0  0  0
 19 35  1  0  0  0  0
 20 36  1  0  0  0  0
 21 22  2  0  0  0  0
 21 23  1  0  0  0  0
M  CHG  2  21   1  23  -1
M  END
