
 OpenBabel10072619583D

 25 25  0  0  0  0  0  0  0  0999 V2000
    1.4083   -0.9504   -0.7469 C   0  0  0  0  0  0  0  0  0  0  0  0
    2.4961   -0.2713   -0.0457 N   0  0  0  0  0  0  0  0  0  0  0  0
    3.2553   -1.1436    0.8416 C   0  0  0  0  0  0  0  0  0  0  0  0
    2.9684    0.9390   -0.5058 C   0  0  0  0  0  0  0  0  0  0  0  0
    2.3528    1.9692   -1.0065 N   0  0  0  0  0  0  0  0  0  0  0  0
    0.9594    2.0479   -1.0471 C   0  0  0  0  0  0  0  0  0  0  0  0
    0.1976    2.1374    0.1233 C   0  0  0  0  0  0  0  0  0  0  0  0
   -1.1928    2.2480    0.0595 C   0  0  0  0  0  0  0  0  0  0  0  0
   -1.8243    2.2898   -1.1828 C   0  0  0  0  0  0  0  0  0  0  0  0
   -1.0759    2.2322   -2.3571 C   0  0  0  0  0  0  0  0  0  0  0  0
    0.3141    2.1230   -2.2854 C   0  0  0  0  0  0  0  0  0  0  0  0
   -3.5369    2.4267   -1.2659 Cl  0  0  0  0  0  0  0  0  0  0  0  0
    4.3222    1.0702   -0.4486 N   0  0  0  0  0  0  0  0  0  0  0  0
    1.5790   -2.0325   -0.7913 H   0  0  0  0  0  0  0  0  0  0  0  0
    1.3181   -0.6155   -1.7850 H   0  0  0  0  0  0  0  0  0  0  0  0
    0.4617   -0.7849   -0.2245 H   0  0  0  0  0  0  0  0  0  0  0  0
    2.6089   -1.9034    1.2957 H   0  0  0  0  0  0  0  0  0  0  0  0
    3.6915   -0.5745    1.6695 H   0  0  0  0  0  0  0  0  0  0  0  0
    4.0537   -1.6543    0.2938 H   0  0  0  0  0  0  0  0  0  0  0  0
    0.6991    2.1179    1.0876 H   0  0  0  0  0  0  0  0  0  0  0  0
   -1.7721    2.3047    0.9764 H   0  0  0  0  0  0  0  0  0  0  0  0
   -1.5633    2.2829   -3.3268 H   0  0  0  0  0  0  0  0  0  0  0  0
    0.9071    2.0927   -3.1958 H   0  0  0  0  0  0  0  0  0  0  0  0
    4.7106    0.8776    0.4617 H   0  0  0  0  0  0  0  0  0  0  0  0
    4.5663    2.0136   -0.7328 H   0  0  0  0  0  0  0  0  0  0  0  0
  1  2  1  0  0  0  0
  1 14  1  0  0  0  0
  1 15  1  0  0  0  0
  1 16  1  0  0  0  0
  2  3  1  0  0  0  0
  2  4  1  0  0  0  0
  3 17  1  0  0  0  0
  3 18  1  0  0  0  0
  3 19  1  0  0  0  0
  4  5  2  3  0  0  0
  4 13  1  0  0  0  0
  5  6  1  0  0  0  0
  6  7  2  0  0  0  0
  6 11  1  0  0  0  0
  7  8  1  0  0  0  0
  7 20  1  0  0  0  0
  8  9  2  0  0  0  0
  8 21  1  0  0  0  0
  9 10  1  0  0  0  0
  9 12  1  0  0  0  0
 10 11  2  0  0  0  0
 10 22  1  0  0  0  0
 11 23  1  0  0  0  0
 13 24  1  0  0  0  0
 13 25  1  0  0  0  0
M  END
