
 OpenBabel10072620033D

 51 55  0  0  1  0  0  0  0  0999 V2000
   11.2828   -2.3209    9.1200 C   0  0  0  0  0  0  0  0  0  0  0  0
   11.2121   -3.7075    8.8144 O   0  0  0  0  0  0  0  0  0  0  0  0
   10.2485   -4.0997    7.9283 C   0  0  0  0  0  0  0  0  0  0  0  0
    9.4345   -3.2627    7.1678 C   0  0  0  0  0  0  0  0  0  0  0  0
    8.4760   -3.8018    6.2950 C   0  0  0  0  0  0  0  0  0  0  0  0
    8.3241   -5.1831    6.1700 C   0  0  0  0  0  0  0  0  0  0  0  0
    9.1537   -6.0193    6.9244 C   0  0  0  0  0  0  0  0  0  0  0  0
   10.1061   -5.4802    7.7943 C   0  0  0  0  0  0  0  0  0  0  0  0
    7.3793   -5.8070    5.3326 N   0  0  0  0  0  0  0  0  0  0  0  0
    6.4750   -5.2280    4.4821 C   0  0  0  0  0  0  0  0  0  0  0  0
    6.3425   -4.0222    4.2837 O   0  0  0  0  0  0  0  0  0  0  0  0
    5.6499   -6.0722    3.7881 N   0  0  0  0  0  0  0  0  0  0  0  0
    5.6100   -7.4298    3.9015 C   0  0  0  0  0  0  0  0  0  0  0  0
    6.3348   -8.2120    4.6641 N   0  0  0  0  0  0  0  0  0  0  0  0
    5.9657   -9.5320    4.5311 N   0  0  0  0  0  0  0  0  0  0  0  0
    4.9704   -9.7004    3.6777 C   0  0  0  0  0  0  0  0  0  0  0  0
    4.4613   -8.2236    2.9338 S   0  0  0  0  0  0  0  0  0  0  0  0
    4.3577  -11.0476    3.3403 C   0  0  3  0  0  0  0  0  0  0  0  0
    4.6308  -12.0519    4.4992 C   0  0  0  0  0  0  0  0  0  0  0  0
    4.0594  -13.4409    4.1754 C   0  0  3  0  0  0  0  0  0  0  0  0
    4.7143  -13.9627    2.8866 C   0  0  0  0  0  0  0  0  0  0  0  0
    4.4229  -13.0044    1.7200 C   0  0  3  0  0  0  0  0  0  0  0  0
    4.9966  -11.6132    2.0463 C   0  0  0  0  0  0  0  0  0  0  0  0
    2.9014  -12.8906    1.5262 C   0  0  0  0  0  0  0  0  0  0  0  0
    2.2421  -12.3631    2.8117 C   0  0  3  0  0  0  0  0  0  0  0  0
    2.5420  -13.3252    3.9703 C   0  0  0  0  0  0  0  0  0  0  0  0
    2.8199  -10.9745    3.1385 C   0  0  0  0  0  0  0  0  0  0  0  0
   12.0324   -2.1922    9.9070 H   0  0  0  0  0  0  0  0  0  0  0  0
   10.3289   -1.9487    9.5080 H   0  0  0  0  0  0  0  0  0  0  0  0
   11.6102   -1.7424    8.2505 H   0  0  0  0  0  0  0  0  0  0  0  0
    9.5155   -2.1827    7.2252 H   0  0  0  0  0  0  0  0  0  0  0  0
    7.8598   -3.1088    5.7303 H   0  0  0  0  0  0  0  0  0  0  0  0
    9.0723   -7.1012    6.8473 H   0  0  0  0  0  0  0  0  0  0  0  0
   10.7386   -6.1450    8.3770 H   0  0  0  0  0  0  0  0  0  0  0  0
    7.3644   -6.8222    5.3669 H   0  0  0  0  0  0  0  0  0  0  0  0
    4.9995   -5.6256    3.1596 H   0  0  0  0  0  0  0  0  0  0  0  0
    4.1886  -11.6813    5.4340 H   0  0  0  0  0  0  0  0  0  0  0  0
    5.7091  -12.1450    4.6845 H   0  0  0  0  0  0  0  0  0  0  0  0
    4.2692  -14.1299    5.0020 H   0  0  0  0  0  0  0  0  0  0  0  0
    4.3338  -14.9647    2.6537 H   0  0  0  0  0  0  0  0  0  0  0  0
    5.7977  -14.0593    3.0293 H   0  0  0  0  0  0  0  0  0  0  0  0
    4.8851  -13.3882    0.8031 H   0  0  0  0  0  0  0  0  0  0  0  0
    4.8122  -10.9370    1.2009 H   0  0  0  0  0  0  0  0  0  0  0  0
    6.0873  -11.6778    2.1544 H   0  0  0  0  0  0  0  0  0  0  0  0
    2.4823  -13.8700    1.2656 H   0  0  0  0  0  0  0  0  0  0  0  0
    2.6798  -12.2172    0.6890 H   0  0  0  0  0  0  0  0  0  0  0  0
    1.1583  -12.2860    2.6660 H   0  0  0  0  0  0  0  0  0  0  0  0
    2.1164  -14.3133    3.7575 H   0  0  0  0  0  0  0  0  0  0  0  0
    2.0647  -12.9639    4.8896 H   0  0  0  0  0  0  0  0  0  0  0  0
    2.3360  -10.5714    4.0378 H   0  0  0  0  0  0  0  0  0  0  0  0
    2.5651  -10.2952    2.3155 H   0  0  0  0  0  0  0  0  0  0  0  0
  1  2  1  0  0  0  0
  1 28  1  0  0  0  0
  1 29  1  0  0  0  0
  1 30  1  0  0  0  0
  2  3  1  0  0  0  0
  3  4  2  0  0  0  0
  3  8  1  0  0  0  0
  4  5  1  0  0  0  0
  4 31  1  0  0  0  0
  5  6  2  0  0  0  0
  5 32  1  0  0  0  0
  6  7  1  0  0  0  0
  6  9  1  0  0  0  0
  7  8  2  0  0  0  0
  7 33  1  0  0  0  0
  8 34  1  0  0  0  0
  9 10  1  0  0  0  0
  9 35  1  0  0  0  0
 10 11  2  0  0  0  0
 10 12  1  0  0  0  0
 12 13  1  0  0  0  0
 12 36  1  0  0  0  0
 13 14  2  0  0  0  0
 13 17  1  0  0  0  0
 14 15  1  0  0  0  0
 15 16  2  0  0  0  0
 16 17  1  0  0  0  0
 16 18  1  0  0  0  0
 18 19  1  0  0  0  0
 18 23  1  0  0  0  0
 18 27  1  0  0  0  0
 19 20  1  0  0  0  0
 19 37  1  0  0  0  0
 19 38  1  0  0  0  0
 20 21  1  0  0  0  0
 20 26  1  0  0  0  0
 20 39  1  0  0  0  0
 21 22  1  0  0  0  0
 21 40  1  0  0  0  0
 21 41  1  0  0  0  0
 22 23  1  0  0  0  0
 22 24  1  0  0  0  0
 22 42  1  0  0  0  0
 23 43  1  0  0  0  0
 23 44  1  0  0  0  0
 24 25  1  0  0  0  0
 24 45  1  0  0  0  0
 24 46  1  0  0  0  0
 25 26  1  0  0  0  0
 25 27  1  0  0  0  0
 25 47  1  0  0  0  0
 26 48  1  0  0  0  0
 26 49  1  0  0  0  0
 27 50  1  0  0  0  0
 27 51  1  0  0  0  0
M  END
