
 OpenBabel10072620153D

 37 39  0  0  0  0  0  0  0  0999 V2000
    0.5353    0.1461   -0.9637 C   0  0  0  0  0  0  0  0  0  0  0  0
    0.9407   -1.1752   -1.1649 C   0  0  0  0  0  0  0  0  0  0  0  0
    2.2393   -1.5630   -0.8242 C   0  0  0  0  0  0  0  0  0  0  0  0
    3.1263   -0.6450   -0.2653 C   0  0  0  0  0  0  0  0  0  0  0  0
    2.7170    0.6745   -0.0779 C   0  0  0  0  0  0  0  0  0  0  0  0
    1.4267    1.0755   -0.4257 C   0  0  0  0  0  0  0  0  0  0  0  0
    3.9229    1.9338    0.6548 Br  0  0  0  0  0  0  0  0  0  0  0  0
    2.6671   -2.9236   -0.9927 N   0  0  0  0  0  0  0  0  0  0  0  0
    2.0511   -3.9889    0.1939 S   0  0  0  0  0  0  0  0  0  0  0  0
    2.1148   -3.3757    1.5011 O   0  0  0  0  0  0  0  0  0  0  0  0
    0.8158   -4.5169   -0.3501 O   0  0  0  0  0  0  0  0  0  0  0  0
    3.2688   -5.2836    0.1497 C   0  0  0  0  0  0  0  0  0  0  0  0
    4.5023   -5.0810    0.7712 C   0  0  0  0  0  0  0  0  0  0  0  0
    5.4444   -6.1116    0.7727 C   0  0  0  0  0  0  0  0  0  0  0  0
    5.1573   -7.3449    0.1771 C   0  0  0  0  0  0  0  0  0  0  0  0
    3.9209   -7.5354   -0.4462 C   0  0  0  0  0  0  0  0  0  0  0  0
    2.9720   -6.5064   -0.4576 C   0  0  0  0  0  0  0  0  0  0  0  0
    6.1615   -8.2694    0.2684 O   0  0  0  0  0  0  0  0  0  0  0  0
    5.8410   -9.6138   -0.0908 C   0  0  0  0  0  0  0  0  0  0  0  0
    7.0090  -10.4573    0.3029 C   0  0  0  0  0  0  0  0  0  0  0  0
    8.3645  -10.2212    0.1501 C   0  0  0  0  0  0  0  0  0  0  0  0
    9.2070  -11.2150    0.6135 N   0  0  0  0  0  0  0  0  0  0  0  0
    8.4743  -12.1763    1.1173 C   0  0  0  0  0  0  0  0  0  0  0  0
    6.7868  -11.9913    1.0522 S   0  0  0  0  0  0  0  0  0  0  0  0
    9.1555  -13.5840    1.8220 Cl  0  0  0  0  0  0  0  0  0  0  0  0
   -0.4773    0.4500   -1.2197 H   0  0  0  0  0  0  0  0  0  0  0  0
    0.2332   -1.8931   -1.5722 H   0  0  0  0  0  0  0  0  0  0  0  0
    4.1269   -0.9564    0.0182 H   0  0  0  0  0  0  0  0  0  0  0  0
    1.1036    2.1025   -0.2722 H   0  0  0  0  0  0  0  0  0  0  0  0
    2.3347   -3.2803   -1.8921 H   0  0  0  0  0  0  0  0  0  0  0  0
    4.7312   -4.1366    1.2602 H   0  0  0  0  0  0  0  0  0  0  0  0
    6.4067   -5.9570    1.2564 H   0  0  0  0  0  0  0  0  0  0  0  0
    3.6603   -8.4699   -0.9322 H   0  0  0  0  0  0  0  0  0  0  0  0
    2.0062   -6.6716   -0.9314 H   0  0  0  0  0  0  0  0  0  0  0  0
    5.6951   -9.6878   -1.1749 H   0  0  0  0  0  0  0  0  0  0  0  0
    4.9355   -9.9439    0.4333 H   0  0  0  0  0  0  0  0  0  0  0  0
    8.7943   -9.3292   -0.2924 H   0  0  0  0  0  0  0  0  0  0  0  0
  1  2  2  0  0  0  0
  1  6  1  0  0  0  0
  1 26  1  0  0  0  0
  2  3  1  0  0  0  0
  2 27  1  0  0  0  0
  3  4  2  0  0  0  0
  3  8  1  0  0  0  0
  4  5  1  0  0  0  0
  4 28  1  0  0  0  0
  5  6  2  0  0  0  0
  5  7  1  0  0  0  0
  6 29  1  0  0  0  0
  8  9  1  0  0  0  0
  8 30  1  0  0  0  0
  9 10  2  0  0  0  0
  9 11  2  0  0  0  0
  9 12  1  0  0  0  0
 12 13  2  0  0  0  0
 12 17  1  0  0  0  0
 13 14  1  0  0  0  0
 13 31  1  0  0  0  0
 14 15  2  0  0  0  0
 14 32  1  0  0  0  0
 15 16  1  0  0  0  0
 15 18  1  0  0  0  0
 16 17  2  0  0  0  0
 16 33  1  0  0  0  0
 17 34  1  0  0  0  0
 18 19  1  0  0  0  0
 19 20  1  0  0  0  0
 19 35  1  0  0  0  0
 19 36  1  0  0  0  0
 20 21  2  0  0  0  0
 20 24  1  0  0  0  0
 21 22  1  0  0  0  0
 21 37  1  0  0  0  0
 22 23  2  0  0  0  0
 23 24  1  0  0  0  0
 23 25  1  0  0  0  0
M  END
