
 OpenBabel10072620223D

 31 32  0  0  0  0  0  0  0  0999 V2000
    0.7192    2.8116   -0.5048 C   0  0  0  0  0  0  0  0  0  0  0  0
    1.1551    1.3884   -0.2934 C   0  0  0  0  0  0  0  0  0  0  0  0
    0.2392    0.3384   -0.1417 C   0  0  0  0  0  0  0  0  0  0  0  0
    0.6895   -0.9691    0.0546 C   0  0  0  0  0  0  0  0  0  0  0  0
    2.0586   -1.2482    0.0886 C   0  0  0  0  0  0  0  0  0  0  0  0
    2.9900   -0.2244   -0.0757 C   0  0  0  0  0  0  0  0  0  0  0  0
    2.5303    1.0894   -0.2545 C   0  0  0  0  0  0  0  0  0  0  0  0
    4.3855   -0.4258   -0.0420 N   0  0  0  0  0  0  0  0  0  0  0  0
    5.0540   -1.6394   -0.1132 C   0  0  0  0  0  0  0  0  0  0  0  0
    4.5314   -2.7189   -0.3543 O   0  0  0  0  0  0  0  0  0  0  0  0
    6.4067   -1.4535    0.1336 N   0  0  0  0  0  0  0  0  0  0  0  0
    7.4306   -2.4156    0.0141 C   0  0  0  0  0  0  0  0  0  0  0  0
    7.2747   -3.6374   -0.6466 C   0  0  0  0  0  0  0  0  0  0  0  0
    8.3441   -4.5386   -0.7389 C   0  0  0  0  0  0  0  0  0  0  0  0
    9.5812   -4.2171   -0.1732 C   0  0  0  0  0  0  0  0  0  0  0  0
    9.7445   -2.9942    0.4792 C   0  0  0  0  0  0  0  0  0  0  0  0
    8.6757   -2.0976    0.5685 C   0  0  0  0  0  0  0  0  0  0  0  0
   10.9453   -5.2735   -0.2523 Cl  0  0  0  0  0  0  0  0  0  0  0  0
    8.0726   -6.0299   -1.5709 Cl  0  0  0  0  0  0  0  0  0  0  0  0
   -1.6379    0.6222   -0.1893 Br  0  0  0  0  0  0  0  0  0  0  0  0
    0.1631    2.9055   -1.4428 H   0  0  0  0  0  0  0  0  0  0  0  0
    1.5773    3.4896   -0.5643 H   0  0  0  0  0  0  0  0  0  0  0  0
    0.0976    3.1513    0.3296 H   0  0  0  0  0  0  0  0  0  0  0  0
   -0.0163   -1.7864    0.1826 H   0  0  0  0  0  0  0  0  0  0  0  0
    2.3635   -2.2778    0.2543 H   0  0  0  0  0  0  0  0  0  0  0  0
    3.2465    1.8987   -0.3764 H   0  0  0  0  0  0  0  0  0  0  0  0
    4.9573    0.3955   -0.1717 H   0  0  0  0  0  0  0  0  0  0  0  0
    6.6409   -0.6047    0.6273 H   0  0  0  0  0  0  0  0  0  0  0  0
    6.3311   -3.9079   -1.1118 H   0  0  0  0  0  0  0  0  0  0  0  0
   10.7019   -2.7321    0.9234 H   0  0  0  0  0  0  0  0  0  0  0  0
    8.8311   -1.1557    1.0890 H   0  0  0  0  0  0  0  0  0  0  0  0
  1  2  1  0  0  0  0
  1 21  1  0  0  0  0
  1 22  1  0  0  0  0
  1 23  1  0  0  0  0
  2  3  2  0  0  0  0
  2  7  1  0  0  0  0
  3  4  1  0  0  0  0
  3 20  1  0  0  0  0
  4  5  2  0  0  0  0
  4 24  1  0  0  0  0
  5  6  1  0  0  0  0
  5 25  1  0  0  0  0
  6  7  2  0  0  0  0
  6  8  1  0  0  0  0
  7 26  1  0  0  0  0
  8  9  1  0  0  0  0
  8 27  1  0  0  0  0
  9 10  2  0  0  0  0
  9 11  1  0  0  0  0
 11 12  1  0  0  0  0
 11 28  1  0  0  0  0
 12 13  2  0  0  0  0
 12 17  1  0  0  0  0
 13 14  1  0  0  0  0
 13 29  1  0  0  0  0
 14 15  2  0  0  0  0
 14 19  1  0  0  0  0
 15 16  1  0  0  0  0
 15 18  1  0  0  0  0
 16 17  2  0  0  0  0
 16 30  1  0  0  0  0
 17 31  1  0  0  0  0
M  END
