
 OpenBabel10072619583D

 17 17  0  0  1  0  0  0  0  0999 V2000
    1.1231   -0.0585    0.5483 C   0  0  0  0  0  0  0  0  0  0  0  0
    2.2465   -0.1288   -0.1810 C   0  0  0  0  0  0  0  0  0  0  0  0
    3.1467   -1.3110   -0.3716 C   0  0  3  0  0  0  0  0  0  0  0  0
    3.0668   -1.9231   -1.7638 C   0  0  0  0  0  0  0  0  0  0  0  0
    3.5054   -3.3681   -1.5379 C   0  0  0  0  0  0  0  0  0  0  0  0
    3.1083   -3.6196   -0.1046 C   0  0  0  0  0  0  0  0  0  0  0  0
    3.1051   -4.6957    0.4663 O   0  0  0  0  0  0  0  0  0  0  0  0
    2.8049   -2.4081    0.4800 N   0  0  0  0  0  0  0  0  0  0  0  0
    0.5586    0.8677    0.6068 H   0  0  0  0  0  0  0  0  0  0  0  0
    0.7287   -0.9123    1.0904 H   0  0  0  0  0  0  0  0  0  0  0  0
    2.5622    0.7727   -0.7056 H   0  0  0  0  0  0  0  0  0  0  0  0
    4.1787   -1.0263   -0.1335 H   0  0  0  0  0  0  0  0  0  0  0  0
    3.6986   -1.4044   -2.4919 H   0  0  0  0  0  0  0  0  0  0  0  0
    2.0361   -1.9112   -2.1432 H   0  0  0  0  0  0  0  0  0  0  0  0
    4.5905   -3.4754   -1.6284 H   0  0  0  0  0  0  0  0  0  0  0  0
    2.9949   -4.0570   -2.2147 H   0  0  0  0  0  0  0  0  0  0  0  0
    2.6971   -2.3513    1.4842 H   0  0  0  0  0  0  0  0  0  0  0  0
  1  2  2  0  0  0  0
  1  9  1  0  0  0  0
  1 10  1  0  0  0  0
  2  3  1  0  0  0  0
  2 11  1  0  0  0  0
  3  4  1  0  0  0  0
  3  8  1  0  0  0  0
  3 12  1  0  0  0  0
  4  5  1  0  0  0  0
  4 13  1  0  0  0  0
  4 14  1  0  0  0  0
  5  6  1  0  0  0  0
  5 15  1  0  0  0  0
  5 16  1  0  0  0  0
  6  7  2  0  0  0  0
  6  8  1  0  0  0  0
  8 17  1  0  0  0  0
M  END
