
 OpenBabel10072620113D

 31 32  0  0  0  0  0  0  0  0999 V2000
    3.5582    0.3442    1.2587 C   0  0  0  0  0  0  0  0  0  0  0  0
    2.4259    0.3227    0.2420 C   0  0  0  0  0  0  0  0  0  0  0  0
    2.8987    0.6964   -1.1463 C   0  0  0  0  0  0  0  0  0  0  0  0
    2.7028    2.0294   -1.5601 C   0  0  0  0  0  0  0  0  0  0  0  0
    3.1207    2.4616   -2.8161 C   0  0  0  0  0  0  0  0  0  0  0  0
    3.7432    1.5684   -3.6775 C   0  0  0  0  0  0  0  0  0  0  0  0
    3.9525    0.2446   -3.2823 C   0  0  0  0  0  0  0  0  0  0  0  0
    3.5464   -0.2076   -2.0198 C   0  0  0  0  0  0  0  0  0  0  0  0
    3.7410   -1.5473   -1.6113 N   0  0  0  0  0  0  0  0  0  0  0  0
    4.5089   -2.5188   -2.2240 C   0  0  0  0  0  0  0  0  0  0  0  0
    5.2669   -2.3685   -3.1733 O   0  0  0  0  0  0  0  0  0  0  0  0
    4.3302   -3.7432   -1.5934 N   0  0  0  0  0  0  0  0  0  0  0  0
    5.0206   -4.9184   -2.0325 C   0  0  0  0  0  0  0  0  0  0  0  0
    4.8525   -6.2216   -1.2992 C   0  0  0  0  0  0  0  0  0  0  0  0
    6.1529   -5.4779   -1.2164 C   0  0  0  0  0  0  0  0  0  0  0  0
    3.1764    0.0917    2.2529 H   0  0  0  0  0  0  0  0  0  0  0  0
    4.0191    1.3363    1.3147 H   0  0  0  0  0  0  0  0  0  0  0  0
    4.3441   -0.3751    1.0068 H   0  0  0  0  0  0  0  0  0  0  0  0
    1.6441    1.0211    0.5673 H   0  0  0  0  0  0  0  0  0  0  0  0
    1.9389   -0.6590    0.2269 H   0  0  0  0  0  0  0  0  0  0  0  0
    2.2201    2.7448   -0.8969 H   0  0  0  0  0  0  0  0  0  0  0  0
    2.9604    3.4923   -3.1208 H   0  0  0  0  0  0  0  0  0  0  0  0
    4.0707    1.8956   -4.6610 H   0  0  0  0  0  0  0  0  0  0  0  0
    4.4351   -0.4179   -3.9949 H   0  0  0  0  0  0  0  0  0  0  0  0
    3.4319   -1.7902   -0.6852 H   0  0  0  0  0  0  0  0  0  0  0  0
    3.4252   -3.8824   -1.1667 H   0  0  0  0  0  0  0  0  0  0  0  0
    5.1213   -4.9802   -3.1152 H   0  0  0  0  0  0  0  0  0  0  0  0
    4.8278   -7.1321   -1.8872 H   0  0  0  0  0  0  0  0  0  0  0  0
    4.2297   -6.2480   -0.4135 H   0  0  0  0  0  0  0  0  0  0  0  0
    7.0073   -5.8737   -1.7532 H   0  0  0  0  0  0  0  0  0  0  0  0
    6.4052   -4.9858   -0.2845 H   0  0  0  0  0  0  0  0  0  0  0  0
  1  2  1  0  0  0  0
  1 16  1  0  0  0  0
  1 17  1  0  0  0  0
  1 18  1  0  0  0  0
  2  3  1  0  0  0  0
  2 19  1  0  0  0  0
  2 20  1  0  0  0  0
  3  4  2  0  0  0  0
  3  8  1  0  0  0  0
  4  5  1  0  0  0  0
  4 21  1  0  0  0  0
  5  6  2  0  0  0  0
  5 22  1  0  0  0  0
  6  7  1  0  0  0  0
  6 23  1  0  0  0  0
  7  8  2  0  0  0  0
  7 24  1  0  0  0  0
  8  9  1  0  0  0  0
  9 10  1  0  0  0  0
  9 25  1  0  0  0  0
 10 11  2  0  0  0  0
 10 12  1  0  0  0  0
 12 13  1  0  0  0  0
 12 26  1  0  0  0  0
 13 14  1  0  0  0  0
 13 15  1  0  0  0  0
 13 27  1  0  0  0  0
 14 15  1  0  0  0  0
 14 28  1  0  0  0  0
 14 29  1  0  0  0  0
 15 30  1  0  0  0  0
 15 31  1  0  0  0  0
M  END
