
 OpenBabel10072620083D

112113  0  0  0  0  0  0  0  0999 V2000
   14.4397    1.9206   -2.1569 C   0  0  0  0  0  0  0  0  0  0  0  0
   13.6929    0.9919   -1.2120 C   0  0  0  0  0  0  0  0  0  0  0  0
   12.6505    1.7531   -0.3931 C   0  0  0  0  0  0  0  0  0  0  0  0
   11.8968    0.8281    0.5634 C   0  0  0  0  0  0  0  0  0  0  0  0
   10.8493    1.5989    1.3711 C   0  0  0  0  0  0  0  0  0  0  0  0
    9.9801    0.6583    2.2090 C   0  0  0  0  0  0  0  0  0  0  0  0
    9.0536    1.3867    3.2121 C   0  0  0  0  0  0  0  0  0  0  0  0
    8.0589    2.3651    2.5243 C   0  0  0  0  0  0  0  0  0  0  0  0
    7.1058    1.7883    1.4657 C   0  0  0  0  0  0  0  0  0  0  0  0
    5.8397    1.0814    1.9656 C   0  0  0  0  0  0  0  0  0  0  0  0
    4.9108    1.9037    2.8662 C   0  0  0  0  0  0  0  0  0  0  0  0
    4.4330    3.2099    2.2332 C   0  0  0  0  0  0  0  0  0  0  0  0
    3.4844    3.9674    3.1489 C   0  0  0  0  0  0  0  0  0  0  0  0
    8.3134    0.3650    4.0955 C   0  0  0  0  0  0  0  0  0  0  0  0
    8.9630   -0.0811    5.3413 N   0  0  0  0  0  0  0  0  0  0  0  0
    8.1747   -0.0229    6.5812 C   0  0  0  0  0  0  0  0  0  0  0  0
    6.9181   -0.9383    6.5043 C   0  0  0  0  0  0  0  0  0  0  0  0
    7.3292   -2.4091    6.2075 C   0  0  0  0  0  0  0  0  0  0  0  0
    6.1854   -3.4310    6.0855 C   0  0  0  0  0  0  0  0  0  0  0  0
    5.0939   -3.1066    5.0587 C   0  0  0  0  0  0  0  0  0  0  0  0
    5.5784   -2.9065    3.6214 C   0  0  0  0  0  0  0  0  0  0  0  0
    6.2340   -4.1503    3.0255 C   0  0  0  0  0  0  0  0  0  0  0  0
    6.6633   -3.9244    1.5859 C   0  0  0  0  0  0  0  0  0  0  0  0
    6.0882   -0.8407    7.8068 C   0  0  0  0  0  0  0  0  0  0  0  0
    5.6902    0.5761    8.2512 C   0  0  0  0  0  0  0  0  0  0  0  0
    4.9875    1.4381    7.1953 C   0  0  0  0  0  0  0  0  0  0  0  0
    3.6822    0.8701    6.6359 C   0  0  0  0  0  0  0  0  0  0  0  0
    2.6136    0.6524    7.7042 C   0  0  0  0  0  0  0  0  0  0  0  0
    1.2984    0.1954    7.0967 C   0  0  0  0  0  0  0  0  0  0  0  0
   10.3341   -0.0274    5.5236 C   0  0  0  0  0  0  0  0  0  0  0  0
   10.9722    1.0884    6.0740 C   0  0  0  0  0  0  0  0  0  0  0  0
   12.3485    1.0825    6.3242 C   0  0  0  0  0  0  0  0  0  0  0  0
   13.1222   -0.0496    6.0393 C   0  0  0  0  0  0  0  0  0  0  0  0
   12.4823   -1.1684    5.4900 C   0  0  0  0  0  0  0  0  0  0  0  0
   11.1091   -1.1526    5.2320 C   0  0  0  0  0  0  0  0  0  0  0  0
   14.5580   -0.1487    6.3446 C   0  0  0  0  0  0  0  0  0  0  0  0
   15.3843    0.8930    6.5552 C   0  0  0  0  0  0  0  0  0  0  0  0
   16.8136    0.7527    6.8608 C   0  0  0  0  0  0  0  0  0  0  0  0
   17.6116   -0.2554    6.3028 C   0  0  0  0  0  0  0  0  0  0  0  0
   18.9698   -0.3430    6.6174 C   0  0  0  0  0  0  0  0  0  0  0  0
   19.5407    0.5891    7.4821 C   0  0  0  0  0  0  0  0  0  0  0  0
   18.7686    1.6134    8.0224 C   0  0  0  0  0  0  0  0  0  0  0  0
   17.4115    1.6985    7.7064 C   0  0  0  0  0  0  0  0  0  0  0  0
   21.3704    0.4553    7.9336 Br  0  0  0  0  0  0  0  0  0  0  0  0
   15.1666    1.3546   -2.7470 H   0  0  0  0  0  0  0  0  0  0  0  0
   14.9826    2.6940   -1.6044 H   0  0  0  0  0  0  0  0  0  0  0  0
   13.7504    2.4145   -2.8492 H   0  0  0  0  0  0  0  0  0  0  0  0
   14.4121    0.5023   -0.5448 H   0  0  0  0  0  0  0  0  0  0  0  0
   13.2032    0.2054   -1.7987 H   0  0  0  0  0  0  0  0  0  0  0  0
   11.9358    2.2313   -1.0734 H   0  0  0  0  0  0  0  0  0  0  0  0
   13.1366    2.5543    0.1761 H   0  0  0  0  0  0  0  0  0  0  0  0
   12.6051    0.3490    1.2489 H   0  0  0  0  0  0  0  0  0  0  0  0
   11.4124    0.0278   -0.0069 H   0  0  0  0  0  0  0  0  0  0  0  0
   10.2211    2.1746    0.6843 H   0  0  0  0  0  0  0  0  0  0  0  0
   11.3553    2.3163    2.0260 H   0  0  0  0  0  0  0  0  0  0  0  0
   10.6387   -0.0266    2.7500 H   0  0  0  0  0  0  0  0  0  0  0  0
    9.3861    0.0251    1.5406 H   0  0  0  0  0  0  0  0  0  0  0  0
    9.6778    2.0236    3.8480 H   0  0  0  0  0  0  0  0  0  0  0  0
    8.6551    3.1446    2.0313 H   0  0  0  0  0  0  0  0  0  0  0  0
    7.4891    2.9017    3.2931 H   0  0  0  0  0  0  0  0  0  0  0  0
    7.6455    1.1041    0.8041 H   0  0  0  0  0  0  0  0  0  0  0  0
    6.7959    2.6143    0.8149 H   0  0  0  0  0  0  0  0  0  0  0  0
    6.1109    0.1613    2.4910 H   0  0  0  0  0  0  0  0  0  0  0  0
    5.2678    0.7564    1.0863 H   0  0  0  0  0  0  0  0  0  0  0  0
    5.4016    2.1109    3.8221 H   0  0  0  0  0  0  0  0  0  0  0  0
    4.0352    1.2862    3.1026 H   0  0  0  0  0  0  0  0  0  0  0  0
    3.9238    2.9974    1.2874 H   0  0  0  0  0  0  0  0  0  0  0  0
    5.2828    3.8600    2.0056 H   0  0  0  0  0  0  0  0  0  0  0  0
    2.6091    3.3627    3.4023 H   0  0  0  0  0  0  0  0  0  0  0  0
    3.1338    4.8804    2.6578 H   0  0  0  0  0  0  0  0  0  0  0  0
    3.9830    4.2551    4.0792 H   0  0  0  0  0  0  0  0  0  0  0  0
    8.0843   -0.5307    3.5088 H   0  0  0  0  0  0  0  0  0  0  0  0
    7.3534    0.8076    4.3762 H   0  0  0  0  0  0  0  0  0  0  0  0
    7.8923    1.0236    6.7477 H   0  0  0  0  0  0  0  0  0  0  0  0
    8.7773   -0.3324    7.4494 H   0  0  0  0  0  0  0  0  0  0  0  0
    6.2854   -0.5983    5.6747 H   0  0  0  0  0  0  0  0  0  0  0  0
    8.0080   -2.7562    6.9997 H   0  0  0  0  0  0  0  0  0  0  0  0
    7.9101   -2.4458    5.2775 H   0  0  0  0  0  0  0  0  0  0  0  0
    5.7091   -3.5623    7.0637 H   0  0  0  0  0  0  0  0  0  0  0  0
    6.6222   -4.4090    5.8460 H   0  0  0  0  0  0  0  0  0  0  0  0
    4.5571   -2.2058    5.3742 H   0  0  0  0  0  0  0  0  0  0  0  0
    4.3538   -3.9177    5.0694 H   0  0  0  0  0  0  0  0  0  0  0  0
    6.2737   -2.0642    3.5771 H   0  0  0  0  0  0  0  0  0  0  0  0
    4.7165   -2.6253    3.0037 H   0  0  0  0  0  0  0  0  0  0  0  0
    5.5374   -4.9945    3.0647 H   0  0  0  0  0  0  0  0  0  0  0  0
    7.1171   -4.4315    3.6062 H   0  0  0  0  0  0  0  0  0  0  0  0
    5.8095   -3.6640    0.9543 H   0  0  0  0  0  0  0  0  0  0  0  0
    7.1203   -4.8329    1.1822 H   0  0  0  0  0  0  0  0  0  0  0  0
    7.3993   -3.1181    1.5182 H   0  0  0  0  0  0  0  0  0  0  0  0
    6.6523   -1.3043    8.6288 H   0  0  0  0  0  0  0  0  0  0  0  0
    5.1700   -1.4291    7.6963 H   0  0  0  0  0  0  0  0  0  0  0  0
    6.5816    1.1138    8.5967 H   0  0  0  0  0  0  0  0  0  0  0  0
    5.0511    0.4917    9.1386 H   0  0  0  0  0  0  0  0  0  0  0  0
    5.6686    1.6233    6.3576 H   0  0  0  0  0  0  0  0  0  0  0  0
    4.7819    2.4231    7.6335 H   0  0  0  0  0  0  0  0  0  0  0  0
    3.8754   -0.0672    6.1062 H   0  0  0  0  0  0  0  0  0  0  0  0
    3.3002    1.5716    5.8840 H   0  0  0  0  0  0  0  0  0  0  0  0
    2.4469    1.5826    8.2576 H   0  0  0  0  0  0  0  0  0  0  0  0
    2.9443   -0.1012    8.4255 H   0  0  0  0  0  0  0  0  0  0  0  0
    0.9119    0.9383    6.3929 H   0  0  0  0  0  0  0  0  0  0  0  0
    0.5512    0.0524    7.8832 H   0  0  0  0  0  0  0  0  0  0  0  0
    1.4186   -0.7532    6.5648 H   0  0  0  0  0  0  0  0  0  0  0  0
   10.3970    1.9797    6.3146 H   0  0  0  0  0  0  0  0  0  0  0  0
   12.7915    1.9723    6.7614 H   0  0  0  0  0  0  0  0  0  0  0  0
   13.0408   -2.0731    5.2598 H   0  0  0  0  0  0  0  0  0  0  0  0
   10.6316   -2.0381    4.8204 H   0  0  0  0  0  0  0  0  0  0  0  0
   14.9426   -1.1638    6.4041 H   0  0  0  0  0  0  0  0  0  0  0  0
   15.0179    1.9138    6.5240 H   0  0  0  0  0  0  0  0  0  0  0  0
   17.1878   -0.9815    5.6115 H   0  0  0  0  0  0  0  0  0  0  0  0
   19.5702   -1.1377    6.1839 H   0  0  0  0  0  0  0  0  0  0  0  0
   19.2076    2.3489    8.6918 H   0  0  0  0  0  0  0  0  0  0  0  0
   16.8184    2.5024    8.1367 H   0  0  0  0  0  0  0  0  0  0  0  0
  1  2  1  0  0  0  0
  1 45  1  0  0  0  0
  1 46  1  0  0  0  0
  1 47  1  0  0  0  0
  2  3  1  0  0  0  0
  2 48  1  0  0  0  0
  2 49  1  0  0  0  0
  3  4  1  0  0  0  0
  3 50  1  0  0  0  0
  3 51  1  0  0  0  0
  4  5  1  0  0  0  0
  4 52  1  0  0  0  0
  4 53  1  0  0  0  0
  5  6  1  0  0  0  0
  5 54  1  0  0  0  0
  5 55  1  0  0  0  0
  6  7  1  0  0  0  0
  6 56  1  0  0  0  0
  6 57  1  0  0  0  0
  7  8  1  0  0  0  0
  7 14  1  0  0  0  0
  7 58  1  0  0  0  0
  8  9  1  0  0  0  0
  8 59  1  0  0  0  0
  8 60  1  0  0  0  0
  9 10  1  0  0  0  0
  9 61  1  0  0  0  0
  9 62  1  0  0  0  0
 10 11  1  0  0  0  0
 10 63  1  0  0  0  0
 10 64  1  0  0  0  0
 11 12  1  0  0  0  0
 11 65  1  0  0  0  0
 11 66  1  0  0  0  0
 12 13  1  0  0  0  0
 12 67  1  0  0  0  0
 12 68  1  0  0  0  0
 13 69  1  0  0  0  0
 13 70  1  0  0  0  0
 13 71  1  0  0  0  0
 14 15  1  0  0  0  0
 14 72  1  0  0  0  0
 14 73  1  0  0  0  0
 15 16  1  0  0  0  0
 15 30  1  0  0  0  0
 16 17  1  0  0  0  0
 16 74  1  0  0  0  0
 16 75  1  0  0  0  0
 17 18  1  0  0  0  0
 17 24  1  0  0  0  0
 17 76  1  0  0  0  0
 18 19  1  0  0  0  0
 18 77  1  0  0  0  0
 18 78  1  0  0  0  0
 19 20  1  0  0  0  0
 19 79  1  0  0  0  0
 19 80  1  0  0  0  0
 20 21  1  0  0  0  0
 20 81  1  0  0  0  0
 20 82  1  0  0  0  0
 21 22  1  0  0  0  0
 21 83  1  0  0  0  0
 21 84  1  0  0  0  0
 22 23  1  0  0  0  0
 22 85  1  0  0  0  0
 22 86  1  0  0  0  0
 23 87  1  0  0  0  0
 23 88  1  0  0  0  0
 23 89  1  0  0  0  0
 24 25  1  0  0  0  0
 24 90  1  0  0  0  0
 24 91  1  0  0  0  0
 25 26  1  0  0  0  0
 25 92  1  0  0  0  0
 25 93  1  0  0  0  0
 26 27  1  0  0  0  0
 26 94  1  0  0  0  0
 26 95  1  0  0  0  0
 27 28  1  0  0  0  0
 27 96  1  0  0  0  0
 27 97  1  0  0  0  0
 28 29  1  0  0  0  0
 28 98  1  0  0  0  0
 28 99  1  0  0  0  0
 29100  1  0  0  0  0
 29101  1  0  0  0  0
 29102  1  0  0  0  0
 30 31  2  0  0  0  0
 30 35  1  0  0  0  0
 31 32  1  0  0  0  0
 31103  1  0  0  0  0
 32 33  2  0  0  0  0
 32104  1  0  0  0  0
 33 34  1  0  0  0  0
 33 36  1  0  0  0  0
 34 35  2  0  0  0  0
 34105  1  0  0  0  0
 35106  1  0  0  0  0
 36 37  2  0  0  0  0
 36107  1  0  0  0  0
 37 38  1  0  0  0  0
 37108  1  0  0  0  0
 38 39  2  0  0  0  0
 38 43  1  0  0  0  0
 39 40  1  0  0  0  0
 39109  1  0  0  0  0
 40 41  2  0  0  0  0
 40110  1  0  0  0  0
 41 42  1  0  0  0  0
 41 44  1  0  0  0  0
 42 43  2  0  0  0  0
 42111  1  0  0  0  0
 43112  1  0  0  0  0
M  END
