
 OpenBabel10072616333D

 44 46  0  0  0  0  0  0  0  0999 V2000
    2.2818    0.7973    0.6218 C   0  0  0  0  0  0  0  0  0  0  0  0
    0.8016    0.5614    0.5507 C   0  0  0  0  0  0  0  0  0  0  0  0
    0.0352    1.1208   -0.4819 C   0  0  0  0  0  0  0  0  0  0  0  0
   -1.3411    0.8905   -0.5344 C   0  0  0  0  0  0  0  0  0  0  0  0
   -1.9516    0.0889    0.4402 C   0  0  0  0  0  0  0  0  0  0  0  0
   -1.1903   -0.4865    1.4596 C   0  0  0  0  0  0  0  0  0  0  0  0
    0.1805   -0.2350    1.5249 C   0  0  0  0  0  0  0  0  0  0  0  0
   -3.4078   -0.1927    0.3869 C   0  0  0  0  0  0  0  0  0  0  0  0
   -3.7980   -1.3455    0.5013 O   0  0  0  0  0  0  0  0  0  0  0  0
   -4.1857    0.9334    0.2187 N   0  0  0  0  0  0  0  0  0  0  0  0
   -5.5595    1.0198    0.0430 C   0  0  0  0  0  0  0  0  0  0  0  0
   -6.4027   -0.0275   -0.0359 C   0  0  0  0  0  0  0  0  0  0  0  0
   -7.7792    0.1150   -0.3649 C   0  0  0  0  0  0  0  0  0  0  0  0
   -8.8453    0.4647    0.4445 C   0  0  0  0  0  0  0  0  0  0  0  0
  -10.0828    0.5113   -0.2617 C   0  0  0  0  0  0  0  0  0  0  0  0
   -9.9330    0.1634   -1.5844 C   0  0  0  0  0  0  0  0  0  0  0  0
   -8.3102   -0.2097   -1.9705 S   0  0  0  0  0  0  0  0  0  0  0  0
   -6.0769    2.4298   -0.1603 C   0  0  0  0  0  0  0  0  0  0  0  0
   -6.8951    2.9333    0.5979 O   0  0  0  0  0  0  0  0  0  0  0  0
   -5.4322    3.0372   -1.2242 N   0  0  0  0  0  0  0  0  0  0  0  0
   -5.5717    4.3703   -1.6651 C   0  0  0  0  0  0  0  0  0  0  0  0
   -6.3904    5.3181   -1.0508 C   0  0  0  0  0  0  0  0  0  0  0  0
   -6.4415    6.6161   -1.5613 C   0  0  0  0  0  0  0  0  0  0  0  0
   -5.6852    6.9875   -2.6689 C   0  0  0  0  0  0  0  0  0  0  0  0
   -4.8714    6.0466   -3.2900 C   0  0  0  0  0  0  0  0  0  0  0  0
   -4.8179    4.7420   -2.7900 C   0  0  0  0  0  0  0  0  0  0  0  0
   -7.2272    7.5264   -0.9720 F   0  0  0  0  0  0  0  0  0  0  0  0
    2.6474    1.3026   -0.2777 H   0  0  0  0  0  0  0  0  0  0  0  0
    2.8133   -0.1572    0.7045 H   0  0  0  0  0  0  0  0  0  0  0  0
    2.5191    1.4226    1.4877 H   0  0  0  0  0  0  0  0  0  0  0  0
    0.5103    1.7256   -1.2543 H   0  0  0  0  0  0  0  0  0  0  0  0
   -1.9168    1.3173   -1.3512 H   0  0  0  0  0  0  0  0  0  0  0  0
   -1.6634   -1.1210    2.2052 H   0  0  0  0  0  0  0  0  0  0  0  0
    0.7646   -0.6716    2.3347 H   0  0  0  0  0  0  0  0  0  0  0  0
   -3.7095    1.8252    0.3226 H   0  0  0  0  0  0  0  0  0  0  0  0
   -6.0453   -1.0465    0.0775 H   0  0  0  0  0  0  0  0  0  0  0  0
   -8.7351    0.7200    1.4928 H   0  0  0  0  0  0  0  0  0  0  0  0
  -11.0340    0.7798    0.1817 H   0  0  0  0  0  0  0  0  0  0  0  0
  -10.6963    0.1160   -2.3486 H   0  0  0  0  0  0  0  0  0  0  0  0
   -4.8309    2.4400   -1.7783 H   0  0  0  0  0  0  0  0  0  0  0  0
   -7.0039    5.0902   -0.1850 H   0  0  0  0  0  0  0  0  0  0  0  0
   -5.7375    8.0082   -3.0366 H   0  0  0  0  0  0  0  0  0  0  0  0
   -4.2849    6.3158   -4.1647 H   0  0  0  0  0  0  0  0  0  0  0  0
   -4.1789    4.0220   -3.2948 H   0  0  0  0  0  0  0  0  0  0  0  0
  1  2  1  0  0  0  0
  1 28  1  0  0  0  0
  1 29  1  0  0  0  0
  1 30  1  0  0  0  0
  2  3  2  0  0  0  0
  2  7  1  0  0  0  0
  3  4  1  0  0  0  0
  3 31  1  0  0  0  0
  4  5  2  0  0  0  0
  4 32  1  0  0  0  0
  5  6  1  0  0  0  0
  5  8  1  0  0  0  0
  6  7  2  0  0  0  0
  6 33  1  0  0  0  0
  7 34  1  0  0  0  0
  8  9  2  0  0  0  0
  8 10  1  0  0  0  0
 10 11  1  0  0  0  0
 10 35  1  0  0  0  0
 11 12  2  0  0  0  0
 11 18  1  0  0  0  0
 12 13  1  0  0  0  0
 12 36  1  0  0  0  0
 13 14  2  0  0  0  0
 13 17  1  0  0  0  0
 14 15  1  0  0  0  0
 14 37  1  0  0  0  0
 15 16  2  0  0  0  0
 15 38  1  0  0  0  0
 16 17  1  0  0  0  0
 16 39  1  0  0  0  0
 18 19  2  0  0  0  0
 18 20  1  0  0  0  0
 20 21  1  0  0  0  0
 20 40  1  0  0  0  0
 21 22  2  0  0  0  0
 21 26  1  0  0  0  0
 22 23  1  0  0  0  0
 22 41  1  0  0  0  0
 23 24  2  0  0  0  0
 23 27  1  0  0  0  0
 24 25  1  0  0  0  0
 24 42  1  0  0  0  0
 25 26  2  0  0  0  0
 25 43  1  0  0  0  0
 26 44  1  0  0  0  0
M  END
