
 OpenBabel10072619523D

 37 38  0  0  1  0  0  0  0  0999 V2000
    1.4830   -0.5760   -0.4752 C   0  0  0  0  0  0  0  0  0  0  0  0
    2.7289    0.1038    0.0846 C   0  0  3  0  0  0  0  0  0  0  0  0
    2.3809    1.4618    0.7199 C   0  0  0  0  0  0  0  0  0  0  0  0
    1.4900    1.2523    1.8249 O   0  0  0  0  0  0  0  0  0  0  0  0
    1.0821    2.4870    2.3981 C   0  0  0  0  0  0  0  0  0  0  0  0
    3.3684   -0.7724    1.0657 N   0  0  0  0  0  0  0  0  0  0  0  0
    4.6965   -0.6086    1.3617 C   0  0  0  0  0  0  0  0  0  0  0  0
    5.4426    0.1491    0.7638 O   0  0  0  0  0  0  0  0  0  0  0  0
    5.0787   -1.4097    2.3877 N   0  0  0  0  0  0  0  0  0  0  0  0
    6.4723   -1.5248    2.7905 C   0  0  0  0  0  0  0  0  0  0  0  0
    6.4584   -2.6863    3.6781 O   0  0  0  0  0  0  0  0  0  0  0  0
    6.9182   -2.1514    4.8384 C   0  0  0  0  0  0  0  0  0  0  0  0
    7.1462   -2.8470    6.0041 C   0  0  0  0  0  0  0  0  0  0  0  0
    7.6329   -2.1304    7.0992 C   0  0  0  0  0  0  0  0  0  0  0  0
    7.8715   -0.7475    6.9995 C   0  0  0  0  0  0  0  0  0  0  0  0
    7.6319   -0.0689    5.8018 C   0  0  0  0  0  0  0  0  0  0  0  0
    7.1472   -0.8001    4.7397 C   0  0  0  0  0  0  0  0  0  0  0  0
    6.8363   -0.3116    3.5102 O   0  0  0  0  0  0  0  0  0  0  0  0
    7.5210   -1.8161    1.6473 C   0  0  0  0  0  0  0  0  0  0  0  0
    7.0684   -2.7751    0.7953 F   0  0  0  0  0  0  0  0  0  0  0  0
    7.8498   -0.7363    0.9063 F   0  0  0  0  0  0  0  0  0  0  0  0
    8.6906   -2.2857    2.1675 F   0  0  0  0  0  0  0  0  0  0  0  0
    0.9680    0.0746   -1.1890 H   0  0  0  0  0  0  0  0  0  0  0  0
    0.7749   -0.8418    0.3157 H   0  0  0  0  0  0  0  0  0  0  0  0
    1.7497   -1.5013   -0.9954 H   0  0  0  0  0  0  0  0  0  0  0  0
    3.4314    0.2760   -0.7400 H   0  0  0  0  0  0  0  0  0  0  0  0
    1.8932    2.1013   -0.0248 H   0  0  0  0  0  0  0  0  0  0  0  0
    3.2878    1.9657    1.0740 H   0  0  0  0  0  0  0  0  0  0  0  0
    0.3658    2.2717    3.1942 H   0  0  0  0  0  0  0  0  0  0  0  0
    0.5902    3.1160    1.6498 H   0  0  0  0  0  0  0  0  0  0  0  0
    1.9407    3.0115    2.8274 H   0  0  0  0  0  0  0  0  0  0  0  0
    2.7854   -0.9698    1.8695 H   0  0  0  0  0  0  0  0  0  0  0  0
    4.5177   -2.2277    2.5663 H   0  0  0  0  0  0  0  0  0  0  0  0
    6.9563   -3.9125    6.0679 H   0  0  0  0  0  0  0  0  0  0  0  0
    7.8343   -2.6449    8.0358 H   0  0  0  0  0  0  0  0  0  0  0  0
    8.2436   -0.2015    7.8632 H   0  0  0  0  0  0  0  0  0  0  0  0
    7.8196    0.9954    5.7099 H   0  0  0  0  0  0  0  0  0  0  0  0
  1  2  1  0  0  0  0
  1 23  1  0  0  0  0
  1 24  1  0  0  0  0
  1 25  1  0  0  0  0
  2  3  1  0  0  0  0
  2  6  1  0  0  0  0
  2 26  1  0  0  0  0
  3  4  1  0  0  0  0
  3 27  1  0  0  0  0
  3 28  1  0  0  0  0
  4  5  1  0  0  0  0
  5 29  1  0  0  0  0
  5 30  1  0  0  0  0
  5 31  1  0  0  0  0
  6  7  1  0  0  0  0
  6 32  1  0  0  0  0
  7  8  2  0  0  0  0
  7  9  1  0  0  0  0
  9 10  1  0  0  0  0
  9 33  1  0  0  0  0
 10 11  1  0  0  0  0
 10 18  1  0  0  0  0
 10 19  1  0  0  0  0
 11 12  1  0  0  0  0
 12 13  2  0  0  0  0
 12 17  1  0  0  0  0
 13 14  1  0  0  0  0
 13 34  1  0  0  0  0
 14 15  2  0  0  0  0
 14 35  1  0  0  0  0
 15 16  1  0  0  0  0
 15 36  1  0  0  0  0
 16 17  2  0  0  0  0
 16 37  1  0  0  0  0
 17 18  1  0  0  0  0
 19 20  1  0  0  0  0
 19 21  1  0  0  0  0
 19 22  1  0  0  0  0
M  END
