
 OpenBabel10072616273D

 20 20  0  0  0  0  0  0  0  0999 V2000
   -1.1860   -1.1530    0.0460 C   0  0  0  0  0  0  0  0  0  0  0  0
   -1.8096    0.0874   -0.0619 C   0  0  0  0  0  0  0  0  0  0  0  0
   -1.0472    1.2577   -0.0689 C   0  0  0  0  0  0  0  0  0  0  0  0
    0.3460    1.1906    0.0136 C   0  0  0  0  0  0  0  0  0  0  0  0
    0.9842   -0.0698    0.0371 C   0  0  0  0  0  0  0  0  0  0  0  0
    0.2057   -1.2301    0.1127 C   0  0  0  0  0  0  0  0  0  0  0  0
    2.3956   -0.1671    0.1222 N   0  0  0  0  0  0  0  0  0  0  0  0
    1.1667    2.3311    0.1345 N   0  0  0  0  0  0  0  0  0  0  0  0
    0.8126    3.6435    0.0114 C   0  0  0  0  0  0  0  0  0  0  0  0
   -0.2541    4.1114   -0.3577 O   0  0  0  0  0  0  0  0  0  0  0  0
    1.8418    4.4799    0.3354 N   0  0  0  0  0  0  0  0  0  0  0  0
   -1.7836   -2.0602    0.0811 H   0  0  0  0  0  0  0  0  0  0  0  0
   -2.8938    0.1509   -0.1143 H   0  0  0  0  0  0  0  0  0  0  0  0
   -1.5682    2.2092   -0.1065 H   0  0  0  0  0  0  0  0  0  0  0  0
    0.6748   -2.2057    0.2028 H   0  0  0  0  0  0  0  0  0  0  0  0
    2.8363    0.4608   -0.5462 H   0  0  0  0  0  0  0  0  0  0  0  0
    2.7218   -1.1181   -0.0323 H   0  0  0  0  0  0  0  0  0  0  0  0
    2.1372    2.1392    0.3311 H   0  0  0  0  0  0  0  0  0  0  0  0
    2.4074    4.2152    1.1289 H   0  0  0  0  0  0  0  0  0  0  0  0
    1.5581    5.4524    0.3372 H   0  0  0  0  0  0  0  0  0  0  0  0
  1  2  2  0  0  0  0
  1  6  1  0  0  0  0
  1 12  1  0  0  0  0
  2  3  1  0  0  0  0
  2 13  1  0  0  0  0
  3  4  2  0  0  0  0
  3 14  1  0  0  0  0
  4  5  1  0  0  0  0
  4  8  1  0  0  0  0
  5  6  2  0  0  0  0
  5  7  1  0  0  0  0
  6 15  1  0  0  0  0
  7 16  1  0  0  0  0
  7 17  1  0  0  0  0
  8  9  1  0  0  0  0
  8 18  1  0  0  0  0
  9 10  2  0  0  0  0
  9 11  1  0  0  0  0
 11 19  1  0  0  0  0
 11 20  1  0  0  0  0
M  END
