
 OpenBabel10072619433D

 42 43  0  0  0  0  0  0  0  0999 V2000
   -8.1730   -2.3842    3.8328 C   0  0  0  0  0  0  0  0  0  0  0  0
   -7.7938   -3.5623    2.9757 C   0  0  0  0  0  0  0  0  0  0  0  0
   -7.0437   -3.4176    1.7870 C   0  0  0  0  0  0  0  0  0  0  0  0
   -6.7736   -4.5540    1.0167 C   0  0  0  0  0  0  0  0  0  0  0  0
   -7.1878   -5.8245    1.4311 C   0  0  0  0  0  0  0  0  0  0  0  0
   -7.8855   -5.9674    2.6220 C   0  0  0  0  0  0  0  0  0  0  0  0
   -8.1996   -4.8476    3.3866 C   0  0  0  0  0  0  0  0  0  0  0  0
   -8.3824   -7.5301    3.1410 Cl  0  0  0  0  0  0  0  0  0  0  0  0
   -6.6718   -2.1167    1.3776 N   0  0  0  0  0  0  0  0  0  0  0  0
   -5.7543   -1.6637    0.4551 C   0  0  0  0  0  0  0  0  0  0  0  0
   -4.4273   -2.4420   -0.1915 S   0  0  0  0  0  0  0  0  0  0  0  0
   -5.9737   -0.3487    0.0699 N   0  0  0  0  0  0  0  0  0  0  0  0
   -7.1660    0.3226    0.4056 N   0  0  0  0  0  0  0  0  0  0  0  0
   -8.3042    0.2292   -0.4039 C   0  0  0  0  0  0  0  0  0  0  0  0
   -8.4367   -0.7623   -1.7532 S   0  0  0  0  0  0  0  0  0  0  0  0
   -9.3318    1.0336    0.0892 N   0  0  0  0  0  0  0  0  0  0  0  0
  -10.5902    0.9520   -0.4237 N   0  0  0  0  0  0  0  0  0  0  0  0
  -11.5286    1.7421    0.0141 C   0  0  0  0  0  0  0  0  0  0  0  0
  -11.2922    2.8197    1.0511 C   0  0  0  0  0  0  0  0  0  0  0  0
  -12.9150    1.5765   -0.5316 C   0  0  0  0  0  0  0  0  0  0  0  0
  -13.2044    0.4918   -1.3556 C   0  0  0  0  0  0  0  0  0  0  0  0
  -14.5006    0.3547   -1.8411 C   0  0  0  0  0  0  0  0  0  0  0  0
  -15.4595    1.2985   -1.4988 C   0  0  0  0  0  0  0  0  0  0  0  0
  -15.0828    2.3475   -0.6749 C   0  0  0  0  0  0  0  0  0  0  0  0
  -13.8349    2.5071   -0.1803 N   0  0  0  0  0  0  0  0  0  0  0  0
   -7.2776   -1.8345    4.1414 H   0  0  0  0  0  0  0  0  0  0  0  0
   -8.6937   -2.6980    4.7439 H   0  0  0  0  0  0  0  0  0  0  0  0
   -8.8442   -1.7158    3.2824 H   0  0  0  0  0  0  0  0  0  0  0  0
   -6.2832   -4.4850    0.0516 H   0  0  0  0  0  0  0  0  0  0  0  0
   -6.9692   -6.6870    0.8082 H   0  0  0  0  0  0  0  0  0  0  0  0
   -8.7646   -4.9751    4.3069 H   0  0  0  0  0  0  0  0  0  0  0  0
   -7.1782   -1.3533    1.8013 H   0  0  0  0  0  0  0  0  0  0  0  0
   -5.4750   -0.0350   -0.7624 H   0  0  0  0  0  0  0  0  0  0  0  0
   -7.0455    1.1357    1.0011 H   0  0  0  0  0  0  0  0  0  0  0  0
   -9.1784    1.5915    0.9185 H   0  0  0  0  0  0  0  0  0  0  0  0
  -10.9903    2.3530    1.9932 H   0  0  0  0  0  0  0  0  0  0  0  0
  -12.1722    3.4317    1.2488 H   0  0  0  0  0  0  0  0  0  0  0  0
  -10.4947    3.4844    0.7061 H   0  0  0  0  0  0  0  0  0  0  0  0
  -12.4428   -0.2368   -1.6140 H   0  0  0  0  0  0  0  0  0  0  0  0
  -14.7570   -0.4855   -2.4805 H   0  0  0  0  0  0  0  0  0  0  0  0
  -16.4768    1.2216   -1.8658 H   0  0  0  0  0  0  0  0  0  0  0  0
  -15.7982    3.1104   -0.3825 H   0  0  0  0  0  0  0  0  0  0  0  0
  1  2  1  0  0  0  0
  1 26  1  0  0  0  0
  1 27  1  0  0  0  0
  1 28  1  0  0  0  0
  2  3  2  0  0  0  0
  2  7  1  0  0  0  0
  3  4  1  0  0  0  0
  3  9  1  0  0  0  0
  4  5  2  0  0  0  0
  4 29  1  0  0  0  0
  5  6  1  0  0  0  0
  5 30  1  0  0  0  0
  6  7  2  0  0  0  0
  6  8  1  0  0  0  0
  7 31  1  0  0  0  0
  9 10  1  0  0  0  0
  9 32  1  0  0  0  0
 10 11  2  0  0  0  0
 10 12  1  0  0  0  0
 12 13  1  0  0  0  0
 12 33  1  0  0  0  0
 13 14  1  0  0  0  0
 13 34  1  0  0  0  0
 14 15  2  0  0  0  0
 14 16  1  0  0  0  0
 16 17  1  0  0  0  0
 16 35  1  0  0  0  0
 17 18  2  0  0  0  0
 18 19  1  0  0  0  0
 18 20  1  0  0  0  0
 19 36  1  0  0  0  0
 19 37  1  0  0  0  0
 19 38  1  0  0  0  0
 20 21  2  0  0  0  0
 20 25  1  0  0  0  0
 21 22  1  0  0  0  0
 21 39  1  0  0  0  0
 22 23  2  0  0  0  0
 22 40  1  0  0  0  0
 23 24  1  0  0  0  0
 23 41  1  0  0  0  0
 24 25  2  0  0  0  0
 24 42  1  0  0  0  0
M  END
