
 OpenBabel10072616343D

 59 62  0  0  1  0  0  0  0  0999 V2000
    4.2110    0.1852   -2.0024 C   0  0  0  0  0  0  0  0  0  0  0  0
    3.2018   -0.6138   -1.2271 C   0  0  0  0  0  0  0  0  0  0  0  0
    3.5989   -1.5632   -0.2741 C   0  0  0  0  0  0  0  0  0  0  0  0
    2.6312   -2.2475    0.4644 C   0  0  0  0  0  0  0  0  0  0  0  0
    1.2695   -1.9961    0.2528 C   0  0  0  0  0  0  0  0  0  0  0  0
    0.8520   -1.0691   -0.7063 C   0  0  0  0  0  0  0  0  0  0  0  0
    1.8320   -0.4068   -1.4578 C   0  0  0  0  0  0  0  0  0  0  0  0
   -0.5991   -0.7884   -0.9568 C   0  0  0  0  0  0  0  0  0  0  0  0
   -0.9819    0.4756   -0.6300 C   0  0  0  0  0  0  0  0  0  0  0  0
   -2.3717    1.0530   -0.7395 C   0  0  3  0  0  0  0  0  0  0  0  0
   -2.6609    1.4183    0.6461 N   0  0  0  0  0  0  0  0  0  0  0  0
   -1.4934    1.6619    1.3608 C   0  0  0  0  0  0  0  0  0  0  0  0
   -1.3860    1.9037    2.5466 O   0  0  0  0  0  0  0  0  0  0  0  0
   -0.3290    1.3466    0.3964 C   0  0  0  0  0  0  0  0  0  0  0  0
    0.8007    1.7648    0.4933 O   0  0  0  0  0  0  0  0  0  0  0  0
   -3.8956    1.0181    1.2991 C   0  0  0  0  0  0  0  0  0  0  0  0
   -3.8545   -0.4054    1.8250 C   0  0  0  0  0  0  0  0  0  0  0  0
   -3.4480   -1.4449    1.0003 C   0  0  0  0  0  0  0  0  0  0  0  0
   -3.2401   -2.6769    1.4691 N   0  3  0  0  0  0  0  0  0  0  0  0
   -3.5501   -3.0173    2.7241 C   0  0  0  0  0  0  0  0  0  0  0  0
   -4.0854   -2.0590    3.5801 C   0  0  0  0  0  0  0  0  0  0  0  0
   -4.2078   -0.7384    3.1361 C   0  0  0  0  0  0  0  0  0  0  0  0
   -2.4906    2.2156   -1.7176 C   0  0  0  0  0  0  0  0  0  0  0  0
   -2.3695    1.9339   -3.0919 C   0  0  0  0  0  0  0  0  0  0  0  0
   -2.5603    2.9383   -4.0390 C   0  0  0  0  0  0  0  0  0  0  0  0
   -2.8604    4.2381   -3.6423 C   0  0  0  0  0  0  0  0  0  0  0  0
   -2.9604    4.5343   -2.2838 C   0  0  0  0  0  0  0  0  0  0  0  0
   -2.7816    3.5331   -1.3252 C   0  0  0  0  0  0  0  0  0  0  0  0
   -2.4303    2.5217   -5.8752 Br  0  0  0  0  0  0  0  0  0  0  0  0
   -1.3417   -1.7125   -1.4093 O   0  5  0  0  0  0  0  0  0  0  0  0
    4.9467   -1.6937   -0.0589 O   0  0  0  0  0  0  0  0  0  0  0  0
    5.4527   -3.0176    0.1579 C   0  0  0  0  0  0  0  0  0  0  0  0
    5.9643   -3.1195    1.5946 C   0  0  0  0  0  0  0  0  0  0  0  0
    6.5978   -3.2345   -0.8313 C   0  0  0  0  0  0  0  0  0  0  0  0
    4.8272   -0.4755   -2.6218 H   0  0  0  0  0  0  0  0  0  0  0  0
    4.8519    0.7564   -1.3206 H   0  0  0  0  0  0  0  0  0  0  0  0
    3.7219    0.9041   -2.6698 H   0  0  0  0  0  0  0  0  0  0  0  0
    2.9085   -2.9643    1.2275 H   0  0  0  0  0  0  0  0  0  0  0  0
    0.5253   -2.5165    0.8406 H   0  0  0  0  0  0  0  0  0  0  0  0
    1.5195    0.3061   -2.2162 H   0  0  0  0  0  0  0  0  0  0  0  0
   -3.1214    0.3299   -1.0737 H   0  0  0  0  0  0  0  0  0  0  0  0
   -4.7229    1.1301    0.5892 H   0  0  0  0  0  0  0  0  0  0  0  0
   -4.0686    1.7143    2.1271 H   0  0  0  0  0  0  0  0  0  0  0  0
   -3.2474   -1.3469   -0.0499 H   0  0  0  0  0  0  0  0  0  0  0  0
   -2.8011   -3.3348    0.8167 H   0  0  0  0  0  0  0  0  0  0  0  0
   -3.3707   -4.0464    3.0092 H   0  0  0  0  0  0  0  0  0  0  0  0
   -4.3735   -2.3264    4.5946 H   0  0  0  0  0  0  0  0  0  0  0  0
   -4.5632    0.0252    3.8275 H   0  0  0  0  0  0  0  0  0  0  0  0
   -2.1418    0.9158   -3.4141 H   0  0  0  0  0  0  0  0  0  0  0  0
   -3.0134    5.0240   -4.3779 H   0  0  0  0  0  0  0  0  0  0  0  0
   -3.1823    5.5496   -1.9670 H   0  0  0  0  0  0  0  0  0  0  0  0
   -2.8851    3.8042   -0.2756 H   0  0  0  0  0  0  0  0  0  0  0  0
    4.6974   -3.7916   -0.0227 H   0  0  0  0  0  0  0  0  0  0  0  0
    6.3371   -4.1286    1.8091 H   0  0  0  0  0  0  0  0  0  0  0  0
    6.7761   -2.4030    1.7766 H   0  0  0  0  0  0  0  0  0  0  0  0
    5.1666   -2.8784    2.3083 H   0  0  0  0  0  0  0  0  0  0  0  0
    7.3967   -2.4994   -0.6854 H   0  0  0  0  0  0  0  0  0  0  0  0
    7.0306   -4.2353   -0.7336 H   0  0  0  0  0  0  0  0  0  0  0  0
    6.2360   -3.1013   -1.8558 H   0  0  0  0  0  0  0  0  0  0  0  0
  1  2  1  0  0  0  0
  1 35  1  0  0  0  0
  1 36  1  0  0  0  0
  1 37  1  0  0  0  0
  2  3  2  0  0  0  0
  2  7  1  0  0  0  0
  3  4  1  0  0  0  0
  3 31  1  0  0  0  0
  4  5  2  0  0  0  0
  4 38  1  0  0  0  0
  5  6  1  0  0  0  0
  5 39  1  0  0  0  0
  6  7  2  0  0  0  0
  6  8  1  0  0  0  0
  7 40  1  0  0  0  0
  8  9  2  0  0  0  0
  8 30  1  0  0  0  0
  9 10  1  0  0  0  0
  9 14  1  0  0  0  0
 10 11  1  0  0  0  0
 10 23  1  0  0  0  0
 10 41  1  0  0  0  0
 11 12  1  0  0  0  0
 11 16  1  0  0  0  0
 12 13  2  0  0  0  0
 12 14  1  0  0  0  0
 14 15  2  0  0  0  0
 16 17  1  0  0  0  0
 16 42  1  0  0  0  0
 16 43  1  0  0  0  0
 17 18  2  0  0  0  0
 17 22  1  0  0  0  0
 18 19  1  0  0  0  0
 18 44  1  0  0  0  0
 19 20  2  0  0  0  0
 19 45  1  0  0  0  0
 20 21  1  0  0  0  0
 20 46  1  0  0  0  0
 21 22  2  0  0  0  0
 21 47  1  0  0  0  0
 22 48  1  0  0  0  0
 23 24  2  0  0  0  0
 23 28  1  0  0  0  0
 24 25  1  0  0  0  0
 24 49  1  0  0  0  0
 25 26  2  0  0  0  0
 25 29  1  0  0  0  0
 26 27  1  0  0  0  0
 26 50  1  0  0  0  0
 27 28  2  0  0  0  0
 27 51  1  0  0  0  0
 28 52  1  0  0  0  0
 31 32  1  0  0  0  0
 32 33  1  0  0  0  0
 32 34  1  0  0  0  0
 32 53  1  0  0  0  0
 33 54  1  0  0  0  0
 33 55  1  0  0  0  0
 33 56  1  0  0  0  0
 34 57  1  0  0  0  0
 34 58  1  0  0  0  0
 34 59  1  0  0  0  0
M  CHG  2  19   1  30  -1
M  END
