
 OpenBabel10072620033D

 45 47  0  0  0  0  0  0  0  0999 V2000
   -0.3518   -6.0403   -2.0863 C   0  0  0  0  0  0  0  0  0  0  0  0
   -1.1812   -5.0051   -1.4396 C   0  0  0  0  0  0  0  0  0  0  0  0
   -0.9784   -3.7135   -0.9886 C   0  0  0  0  0  0  0  0  0  0  0  0
   -2.2658   -3.3116   -0.5195 C   0  0  0  0  0  0  0  0  0  0  0  0
   -3.1504   -4.3130   -0.6407 N   0  0  0  0  0  0  0  0  0  0  0  0
   -2.4741   -5.3565   -1.2261 O   0  0  0  0  0  0  0  0  0  0  0  0
   -2.6626   -2.0478    0.0896 C   0  0  0  0  0  0  0  0  0  0  0  0
   -2.1068   -1.6835    1.3291 C   0  0  0  0  0  0  0  0  0  0  0  0
   -2.4920   -0.4965    1.9567 C   0  0  0  0  0  0  0  0  0  0  0  0
   -3.4445    0.3299    1.3630 C   0  0  0  0  0  0  0  0  0  0  0  0
   -3.9930   -0.0147    0.1273 C   0  0  0  0  0  0  0  0  0  0  0  0
   -3.5978   -1.1917   -0.5155 C   0  0  0  0  0  0  0  0  0  0  0  0
   -4.2751   -1.5064   -2.0776 Cl  0  0  0  0  0  0  0  0  0  0  0  0
    0.2403   -2.9299   -1.0226 C   0  0  0  0  0  0  0  0  0  0  0  0
    0.2458   -1.7075   -1.1254 O   0  0  0  0  0  0  0  0  0  0  0  0
    1.4488   -3.6102   -0.9796 N   0  0  0  0  0  0  0  0  0  0  0  0
    1.9106   -4.4478    0.0376 C   0  0  0  0  0  0  0  0  0  0  0  0
    1.1657   -4.6830    1.5119 S   0  0  0  0  0  0  0  0  0  0  0  0
    3.1178   -5.0165   -0.3466 N   0  0  0  0  0  0  0  0  0  0  0  0
    3.8631   -6.0143    0.4250 C   0  0  0  0  0  0  0  0  0  0  0  0
    5.2800   -6.2098   -0.1184 C   0  0  0  0  0  0  0  0  0  0  0  0
    5.9459   -7.4247    0.4764 C   0  0  0  0  0  0  0  0  0  0  0  0
    5.9140   -8.6492   -0.2063 C   0  0  0  0  0  0  0  0  0  0  0  0
    6.4878   -9.7895    0.3583 C   0  0  0  0  0  0  0  0  0  0  0  0
    7.0946   -9.7199    1.6105 C   0  0  0  0  0  0  0  0  0  0  0  0
    7.1400   -8.5056    2.2932 C   0  0  0  0  0  0  0  0  0  0  0  0
    6.5671   -7.3622    1.7313 C   0  0  0  0  0  0  0  0  0  0  0  0
    0.3708   -5.5898   -2.7721 H   0  0  0  0  0  0  0  0  0  0  0  0
   -0.9657   -6.7386   -2.6661 H   0  0  0  0  0  0  0  0  0  0  0  0
    0.1913   -6.6208   -1.3351 H   0  0  0  0  0  0  0  0  0  0  0  0
   -1.3787   -2.3260    1.8215 H   0  0  0  0  0  0  0  0  0  0  0  0
   -2.0508   -0.2219    2.9127 H   0  0  0  0  0  0  0  0  0  0  0  0
   -3.7533    1.2490    1.8538 H   0  0  0  0  0  0  0  0  0  0  0  0
   -4.7259    0.6436   -0.3348 H   0  0  0  0  0  0  0  0  0  0  0  0
    2.1855   -2.9599   -1.2272 H   0  0  0  0  0  0  0  0  0  0  0  0
    3.2510   -5.0631   -1.3494 H   0  0  0  0  0  0  0  0  0  0  0  0
    3.2898   -6.9476    0.3847 H   0  0  0  0  0  0  0  0  0  0  0  0
    3.9081   -5.6954    1.4714 H   0  0  0  0  0  0  0  0  0  0  0  0
    5.8851   -5.3171    0.0836 H   0  0  0  0  0  0  0  0  0  0  0  0
    5.2574   -6.3060   -1.2115 H   0  0  0  0  0  0  0  0  0  0  0  0
    5.4392   -8.7256   -1.1820 H   0  0  0  0  0  0  0  0  0  0  0  0
    6.4595  -10.7340   -0.1787 H   0  0  0  0  0  0  0  0  0  0  0  0
    7.5280  -10.6121    2.0558 H   0  0  0  0  0  0  0  0  0  0  0  0
    7.6210   -8.4506    3.2667 H   0  0  0  0  0  0  0  0  0  0  0  0
    6.6074   -6.4254    2.2831 H   0  0  0  0  0  0  0  0  0  0  0  0
  1  2  1  0  0  0  0
  1 28  1  0  0  0  0
  1 29  1  0  0  0  0
  1 30  1  0  0  0  0
  2  3  2  0  0  0  0
  2  6  1  0  0  0  0
  3  4  1  0  0  0  0
  3 14  1  0  0  0  0
  4  5  2  0  0  0  0
  4  7  1  0  0  0  0
  5  6  1  0  0  0  0
  7  8  2  0  0  0  0
  7 12  1  0  0  0  0
  8  9  1  0  0  0  0
  8 31  1  0  0  0  0
  9 10  2  0  0  0  0
  9 32  1  0  0  0  0
 10 11  1  0  0  0  0
 10 33  1  0  0  0  0
 11 12  2  0  0  0  0
 11 34  1  0  0  0  0
 12 13  1  0  0  0  0
 14 15  2  0  0  0  0
 14 16  1  0  0  0  0
 16 17  1  0  0  0  0
 16 35  1  0  0  0  0
 17 18  2  0  0  0  0
 17 19  1  0  0  0  0
 19 20  1  0  0  0  0
 19 36  1  0  0  0  0
 20 21  1  0  0  0  0
 20 37  1  0  0  0  0
 20 38  1  0  0  0  0
 21 22  1  0  0  0  0
 21 39  1  0  0  0  0
 21 40  1  0  0  0  0
 22 23  2  0  0  0  0
 22 27  1  0  0  0  0
 23 24  1  0  0  0  0
 23 41  1  0  0  0  0
 24 25  2  0  0  0  0
 24 42  1  0  0  0  0
 25 26  1  0  0  0  0
 25 43  1  0  0  0  0
 26 27  2  0  0  0  0
 26 44  1  0  0  0  0
 27 45  1  0  0  0  0
M  END
