
 OpenBabel10072616273D

 19 19  0  0  0  0  0  0  0  0999 V2000
   -2.4073   -0.0324   -0.0305 C   0  0  0  0  0  0  0  0  0  0  0  0
   -0.9369    0.0210    0.0338 N   0  3  0  0  0  0  0  0  0  0  0  0
   -0.2976    1.2108    0.0818 C   0  0  0  0  0  0  0  0  0  0  0  0
    1.0917    1.2712    0.1448 C   0  0  0  0  0  0  0  0  0  0  0  0
    1.8229    0.0917    0.1590 C   0  0  0  0  0  0  0  0  0  0  0  0
    1.1467   -1.1223    0.1105 C   0  0  0  0  0  0  0  0  0  0  0  0
   -0.2394   -1.1366    0.0484 C   0  0  0  0  0  0  0  0  0  0  0  0
    3.1803   -0.0165    0.2179 O   0  0  0  0  0  0  0  0  0  0  0  0
    3.9393    1.1881    0.2671 C   0  0  0  0  0  0  0  0  0  0  0  0
   -2.8167    0.9781   -0.0981 H   0  0  0  0  0  0  0  0  0  0  0  0
   -2.7624   -0.5220    0.8800 H   0  0  0  0  0  0  0  0  0  0  0  0
   -2.6845   -0.6056   -0.9192 H   0  0  0  0  0  0  0  0  0  0  0  0
   -0.9033    2.1127    0.0700 H   0  0  0  0  0  0  0  0  0  0  0  0
    1.5696    2.2454    0.1818 H   0  0  0  0  0  0  0  0  0  0  0  0
    1.7041   -2.0568    0.1216 H   0  0  0  0  0  0  0  0  0  0  0  0
   -0.8019   -2.0652    0.0103 H   0  0  0  0  0  0  0  0  0  0  0  0
    4.9981    0.9156    0.3084 H   0  0  0  0  0  0  0  0  0  0  0  0
    3.7044    1.7627    1.1691 H   0  0  0  0  0  0  0  0  0  0  0  0
    3.7813    1.7881   -0.6351 H   0  0  0  0  0  0  0  0  0  0  0  0
  1  2  1  0  0  0  0
  1 10  1  0  0  0  0
  1 11  1  0  0  0  0
  1 12  1  0  0  0  0
  2  3  2  0  0  0  0
  2  7  1  0  0  0  0
  3  4  1  0  0  0  0
  3 13  1  0  0  0  0
  4  5  2  0  0  0  0
  4 14  1  0  0  0  0
  5  6  1  0  0  0  0
  5  8  1  0  0  0  0
  6  7  2  0  0  0  0
  6 15  1  0  0  0  0
  7 16  1  0  0  0  0
  8  9  1  0  0  0  0
  9 17  1  0  0  0  0
  9 18  1  0  0  0  0
  9 19  1  0  0  0  0
M  CHG  1   2   1
M  END
