
 OpenBabel10072619553D

 48 51  0  0  0  0  0  0  0  0999 V2000
   -2.5204   -0.1896   -0.3016 C   0  0  0  0  0  0  0  0  0  0  0  0
   -1.0540   -0.1183   -0.1349 N   0  3  0  0  0  0  0  0  0  0  0  0
   -0.5350    0.5385    0.9241 C   0  0  0  0  0  0  0  0  0  0  0  0
    0.8472    0.6103    1.1066 C   0  0  0  0  0  0  0  0  0  0  0  0
    1.7311    0.0018    0.2017 C   0  0  0  0  0  0  0  0  0  0  0  0
    1.1423   -0.6749   -0.8780 C   0  0  0  0  0  0  0  0  0  0  0  0
   -0.2450   -0.7271   -1.0276 C   0  0  0  0  0  0  0  0  0  0  0  0
    3.2031    0.0679    0.3778 C   0  0  0  0  0  0  0  0  0  0  0  0
    3.6724    0.7006    1.4558 N   0  0  0  0  0  0  0  0  0  0  0  0
    5.0021    0.7331    1.5700 C   0  0  0  0  0  0  0  0  0  0  0  0
    5.8498    0.1892    0.6937 N   0  0  0  0  0  0  0  0  0  0  0  0
    5.2841   -0.4217   -0.3500 C   0  0  0  0  0  0  0  0  0  0  0  0
    3.9673   -0.5106   -0.5516 N   0  0  0  0  0  0  0  0  0  0  0  0
    6.1805   -1.0466   -1.3541 C   0  0  0  0  0  0  0  0  0  0  0  0
    7.5784   -0.9720   -1.2498 C   0  0  0  0  0  0  0  0  0  0  0  0
    8.4060   -1.5671   -2.2038 C   0  0  0  0  0  0  0  0  0  0  0  0
    7.8764   -2.2349   -3.2507 N   0  3  0  0  0  0  0  0  0  0  0  0
    6.5380   -2.3277   -3.3984 C   0  0  0  0  0  0  0  0  0  0  0  0
    5.6795   -1.7449   -2.4640 C   0  0  0  0  0  0  0  0  0  0  0  0
    8.7732   -2.8461   -4.2534 C   0  0  0  0  0  0  0  0  0  0  0  0
    5.5773    1.4162    2.7554 C   0  0  0  0  0  0  0  0  0  0  0  0
    4.7667    2.0057    3.7382 C   0  0  0  0  0  0  0  0  0  0  0  0
    5.3254    2.6390    4.8499 C   0  0  0  0  0  0  0  0  0  0  0  0
    6.6650    2.6946    5.0064 N   0  3  0  0  0  0  0  0  0  0  0  0
    7.4862    2.1512    4.0831 C   0  0  0  0  0  0  0  0  0  0  0  0
    6.9631    1.5092    2.9589 C   0  0  0  0  0  0  0  0  0  0  0  0
    7.2341    3.3768    6.1870 C   0  0  0  0  0  0  0  0  0  0  0  0
   -2.9598    0.7508    0.0411 H   0  0  0  0  0  0  0  0  0  0  0  0
   -2.8761   -1.0307    0.2985 H   0  0  0  0  0  0  0  0  0  0  0  0
   -2.7569   -0.3372   -1.3583 H   0  0  0  0  0  0  0  0  0  0  0  0
   -1.2309    1.0013    1.6195 H   0  0  0  0  0  0  0  0  0  0  0  0
    1.2264    1.1521    1.9724 H   0  0  0  0  0  0  0  0  0  0  0  0
    1.7608   -1.1764   -1.6215 H   0  0  0  0  0  0  0  0  0  0  0  0
   -0.7127   -1.2541   -1.8555 H   0  0  0  0  0  0  0  0  0  0  0  0
    8.0447   -0.4432   -0.4193 H   0  0  0  0  0  0  0  0  0  0  0  0
    9.4899   -1.5130   -2.1379 H   0  0  0  0  0  0  0  0  0  0  0  0
    6.1614   -2.8667   -4.2642 H   0  0  0  0  0  0  0  0  0  0  0  0
    4.6055   -1.8448   -2.6173 H   0  0  0  0  0  0  0  0  0  0  0  0
    9.6518   -3.2461   -3.7407 H   0  0  0  0  0  0  0  0  0  0  0  0
    9.0543   -2.0616   -4.9602 H   0  0  0  0  0  0  0  0  0  0  0  0
    8.2481   -3.6581   -4.7625 H   0  0  0  0  0  0  0  0  0  0  0  0
    3.6811    1.9793    3.6505 H   0  0  0  0  0  0  0  0  0  0  0  0
    4.7094    3.1027    5.6164 H   0  0  0  0  0  0  0  0  0  0  0  0
    8.5574    2.2339    4.2492 H   0  0  0  0  0  0  0  0  0  0  0  0
    7.6591    1.0800    2.2392 H   0  0  0  0  0  0  0  0  0  0  0  0
    6.5739    3.2112    7.0423 H   0  0  0  0  0  0  0  0  0  0  0  0
    7.3049    4.4403    5.9462 H   0  0  0  0  0  0  0  0  0  0  0  0
    8.2206    2.9594    6.4037 H   0  0  0  0  0  0  0  0  0  0  0  0
  1  2  1  0  0  0  0
  1 28  1  0  0  0  0
  1 29  1  0  0  0  0
  1 30  1  0  0  0  0
  2  3  2  0  0  0  0
  2  7  1  0  0  0  0
  3  4  1  0  0  0  0
  3 31  1  0  0  0  0
  4  5  2  0  0  0  0
  4 32  1  0  0  0  0
  5  6  1  0  0  0  0
  5  8  1  0  0  0  0
  6  7  2  0  0  0  0
  6 33  1  0  0  0  0
  7 34  1  0  0  0  0
  8  9  2  0  0  0  0
  8 13  1  0  0  0  0
  9 10  1  0  0  0  0
 10 11  2  0  0  0  0
 10 21  1  0  0  0  0
 11 12  1  0  0  0  0
 12 13  2  0  0  0  0
 12 14  1  0  0  0  0
 14 15  2  0  0  0  0
 14 19  1  0  0  0  0
 15 16  1  0  0  0  0
 15 35  1  0  0  0  0
 16 17  2  0  0  0  0
 16 36  1  0  0  0  0
 17 18  1  0  0  0  0
 17 20  1  0  0  0  0
 18 19  2  0  0  0  0
 18 37  1  0  0  0  0
 19 38  1  0  0  0  0
 20 39  1  0  0  0  0
 20 40  1  0  0  0  0
 20 41  1  0  0  0  0
 21 22  2  0  0  0  0
 21 26  1  0  0  0  0
 22 23  1  0  0  0  0
 22 42  1  0  0  0  0
 23 24  2  0  0  0  0
 23 43  1  0  0  0  0
 24 25  1  0  0  0  0
 24 27  1  0  0  0  0
 25 26  2  0  0  0  0
 25 44  1  0  0  0  0
 26 45  1  0  0  0  0
 27 46  1  0  0  0  0
 27 47  1  0  0  0  0
 27 48  1  0  0  0  0
M  CHG  3   2   1  17   1  24   1
M  END
