
 OpenBabel10072619443D

 38 40  0  0  0  0  0  0  0  0999 V2000
   -0.2535    1.1650   -0.3312 C   0  0  0  0  0  0  0  0  0  0  0  0
    1.1308    1.0747   -0.2740 C   0  0  0  0  0  0  0  0  0  0  0  0
    1.7001   -0.1835   -0.1854 C   0  0  0  0  0  0  0  0  0  0  0  0
    0.9870   -1.3302   -0.1467 N   0  0  0  0  0  0  0  0  0  0  0  0
   -0.3618   -1.2277   -0.1988 C   0  0  0  0  0  0  0  0  0  0  0  0
   -1.0141   -0.0016   -0.2950 C   0  0  0  0  0  0  0  0  0  0  0  0
   -1.1442   -2.4717   -0.1461 C   0  0  0  0  0  0  0  0  0  0  0  0
   -0.5998   -3.6954   -0.0396 C   0  0  0  0  0  0  0  0  0  0  0  0
   -1.3836   -4.9362    0.0225 C   0  0  0  0  0  0  0  0  0  0  0  0
   -2.5323   -5.1361   -0.7520 C   0  0  0  0  0  0  0  0  0  0  0  0
   -3.2303   -6.3485   -0.6942 C   0  0  0  0  0  0  0  0  0  0  0  0
   -2.7808   -7.3911    0.1231 C   0  0  0  0  0  0  0  0  0  0  0  0
   -1.6391   -7.1866    0.9054 C   0  0  0  0  0  0  0  0  0  0  0  0
   -0.9398   -5.9757    0.8468 C   0  0  0  0  0  0  0  0  0  0  0  0
   -3.4954   -8.6707    0.2253 C   0  0  0  0  0  0  0  0  0  0  0  0
   -4.0402   -9.3178   -0.8181 C   0  0  0  0  0  0  0  0  0  0  0  0
   -4.7386  -10.6085   -0.6997 C   0  0  0  0  0  0  0  0  0  0  0  0
   -5.3258  -11.1907   -1.8195 C   0  0  0  0  0  0  0  0  0  0  0  0
   -5.9820  -12.4122   -1.6786 C   0  0  0  0  0  0  0  0  0  0  0  0
   -6.0303  -13.0184   -0.4305 C   0  0  0  0  0  0  0  0  0  0  0  0
   -5.4187  -12.3740    0.6303 C   0  0  0  0  0  0  0  0  0  0  0  0
   -4.7796  -11.1886    0.5231 N   0  0  0  0  0  0  0  0  0  0  0  0
   -0.7394    2.1337   -0.4025 H   0  0  0  0  0  0  0  0  0  0  0  0
    1.7526    1.9621   -0.2969 H   0  0  0  0  0  0  0  0  0  0  0  0
    2.7778   -0.3097   -0.1413 H   0  0  0  0  0  0  0  0  0  0  0  0
   -2.0961    0.0561   -0.3373 H   0  0  0  0  0  0  0  0  0  0  0  0
   -2.2222   -2.3518   -0.1854 H   0  0  0  0  0  0  0  0  0  0  0  0
    0.4808   -3.8111    0.0303 H   0  0  0  0  0  0  0  0  0  0  0  0
   -2.8941   -4.3560   -1.4173 H   0  0  0  0  0  0  0  0  0  0  0  0
   -4.1305   -6.4629   -1.2918 H   0  0  0  0  0  0  0  0  0  0  0  0
   -1.2734   -7.9744    1.5606 H   0  0  0  0  0  0  0  0  0  0  0  0
   -0.0484   -5.8505    1.4581 H   0  0  0  0  0  0  0  0  0  0  0  0
   -3.5471   -9.1008    1.2243 H   0  0  0  0  0  0  0  0  0  0  0  0
   -3.9685   -8.9084   -1.8213 H   0  0  0  0  0  0  0  0  0  0  0  0
   -5.2849  -10.7088   -2.7901 H   0  0  0  0  0  0  0  0  0  0  0  0
   -6.4496  -12.8847   -2.5378 H   0  0  0  0  0  0  0  0  0  0  0  0
   -6.5306  -13.9692   -0.2862 H   0  0  0  0  0  0  0  0  0  0  0  0
   -5.4289  -12.8033    1.6279 H   0  0  0  0  0  0  0  0  0  0  0  0
  1  2  2  0  0  0  0
  1  6  1  0  0  0  0
  1 23  1  0  0  0  0
  2  3  1  0  0  0  0
  2 24  1  0  0  0  0
  3  4  2  0  0  0  0
  3 25  1  0  0  0  0
  4  5  1  0  0  0  0
  5  6  2  0  0  0  0
  5  7  1  0  0  0  0
  6 26  1  0  0  0  0
  7  8  2  0  0  0  0
  7 27  1  0  0  0  0
  8  9  1  0  0  0  0
  8 28  1  0  0  0  0
  9 10  2  0  0  0  0
  9 14  1  0  0  0  0
 10 11  1  0  0  0  0
 10 29  1  0  0  0  0
 11 12  2  0  0  0  0
 11 30  1  0  0  0  0
 12 13  1  0  0  0  0
 12 15  1  0  0  0  0
 13 14  2  0  0  0  0
 13 31  1  0  0  0  0
 14 32  1  0  0  0  0
 15 16  2  0  0  0  0
 15 33  1  0  0  0  0
 16 17  1  0  0  0  0
 16 34  1  0  0  0  0
 17 18  2  0  0  0  0
 17 22  1  0  0  0  0
 18 19  1  0  0  0  0
 18 35  1  0  0  0  0
 19 20  2  0  0  0  0
 19 36  1  0  0  0  0
 20 21  1  0  0  0  0
 20 37  1  0  0  0  0
 21 22  2  0  0  0  0
 21 38  1  0  0  0  0
M  END
