
 OpenBabel10072616443D

 76 79  0  0  0  0  0  0  0  0999 V2000
   -3.1735    8.2575    3.9394 C   0  0  0  0  0  0  0  0  0  0  0  0
   -1.8227    8.7491    4.5069 C   0  0  0  0  0  0  0  0  0  0  0  0
   -1.7370   10.2662    4.2324 C   0  0  0  0  0  0  0  0  0  0  0  0
   -1.8558    8.5045    6.0305 C   0  0  0  0  0  0  0  0  0  0  0  0
   -0.5984    8.0405    3.8987 C   0  0  0  0  0  0  0  0  0  0  0  0
   -0.7163    7.0098    2.9492 C   0  0  0  0  0  0  0  0  0  0  0  0
    0.4124    6.3735    2.4227 C   0  0  0  0  0  0  0  0  0  0  0  0
    1.6849    6.7717    2.8316 C   0  0  0  0  0  0  0  0  0  0  0  0
    1.8367    7.7792    3.7810 C   0  0  0  0  0  0  0  0  0  0  0  0
    0.7027    8.4073    4.3035 C   0  0  0  0  0  0  0  0  0  0  0  0
    3.1144    5.9427    2.1777 S   0  0  0  0  0  0  0  0  0  0  0  0
    4.2087    6.1271    3.1065 O   0  0  0  0  0  0  0  0  0  0  0  0
    2.6967    4.6180    1.7660 O   0  0  0  0  0  0  0  0  0  0  0  0
    3.4240    6.7983    0.7549 N   0  0  0  0  0  0  0  0  0  0  0  0
    3.6849    8.1930    0.8261 C   0  0  0  0  0  0  0  0  0  0  0  0
    4.8570    8.6602    1.4131 C   0  0  0  0  0  0  0  0  0  0  0  0
    5.0998   10.0338    1.4933 C   0  0  0  0  0  0  0  0  0  0  0  0
    4.1744   10.9638    0.9928 C   0  0  0  0  0  0  0  0  0  0  0  0
    2.9916   10.4705    0.4154 C   0  0  0  0  0  0  0  0  0  0  0  0
    2.7472    9.0954    0.3301 C   0  0  0  0  0  0  0  0  0  0  0  0
    4.4437   12.4095    1.0621 C   0  0  0  0  0  0  0  0  0  0  0  0
    5.6521   12.9422    0.5791 C   0  0  0  0  0  0  0  0  0  0  0  0
    5.9134   14.3133    0.6396 C   0  0  0  0  0  0  0  0  0  0  0  0
    4.9636   15.1729    1.1797 C   0  0  0  0  0  0  0  0  0  0  0  0
    3.7587   14.6716    1.6655 C   0  0  0  0  0  0  0  0  0  0  0  0
    3.5035   13.2983    1.6094 C   0  0  0  0  0  0  0  0  0  0  0  0
    5.1924   16.5737    1.2119 N   0  0  0  0  0  0  0  0  0  0  0  0
    4.9550   17.4420   -0.2209 S   0  0  0  0  0  0  0  0  0  0  0  0
    5.4086   18.7905    0.0483 O   0  0  0  0  0  0  0  0  0  0  0  0
    5.4945   16.6906   -1.3339 O   0  0  0  0  0  0  0  0  0  0  0  0
    3.1887   17.4818   -0.3553 C   0  0  0  0  0  0  0  0  0  0  0  0
    2.4641   18.4441    0.3445 C   0  0  0  0  0  0  0  0  0  0  0  0
    1.0703   18.4796    0.2312 C   0  0  0  0  0  0  0  0  0  0  0  0
    0.3795   17.5666   -0.5866 C   0  0  0  0  0  0  0  0  0  0  0  0
    1.1456   16.6160   -1.2939 C   0  0  0  0  0  0  0  0  0  0  0  0
    2.5374   16.5718   -1.1854 C   0  0  0  0  0  0  0  0  0  0  0  0
   -1.1530   17.5799   -0.7342 C   0  0  0  0  0  0  0  0  0  0  0  0
   -1.8532   18.6795    0.0956 C   0  0  0  0  0  0  0  0  0  0  0  0
   -1.5299   17.8172   -2.2124 C   0  0  0  0  0  0  0  0  0  0  0  0
   -1.7264   16.2217   -0.2751 C   0  0  0  0  0  0  0  0  0  0  0  0
   -4.0131    8.7933    4.3980 H   0  0  0  0  0  0  0  0  0  0  0  0
   -3.3287    7.1904    4.1377 H   0  0  0  0  0  0  0  0  0  0  0  0
   -3.2402    8.4188    2.8573 H   0  0  0  0  0  0  0  0  0  0  0  0
   -2.6195   10.7887    4.6190 H   0  0  0  0  0  0  0  0  0  0  0  0
   -1.6741   10.4697    3.1567 H   0  0  0  0  0  0  0  0  0  0  0  0
   -0.8625   10.7260    4.7055 H   0  0  0  0  0  0  0  0  0  0  0  0
   -2.7443    8.9591    6.4839 H   0  0  0  0  0  0  0  0  0  0  0  0
   -0.9828    8.9289    6.5385 H   0  0  0  0  0  0  0  0  0  0  0  0
   -1.8797    7.4314    6.2555 H   0  0  0  0  0  0  0  0  0  0  0  0
   -1.6879    6.6666    2.6024 H   0  0  0  0  0  0  0  0  0  0  0  0
    0.2844    5.5651    1.7063 H   0  0  0  0  0  0  0  0  0  0  0  0
    2.8255    8.0819    4.1197 H   0  0  0  0  0  0  0  0  0  0  0  0
    0.8504    9.1896    5.0458 H   0  0  0  0  0  0  0  0  0  0  0  0
    2.8698    6.4552   -0.0270 H   0  0  0  0  0  0  0  0  0  0  0  0
    5.5948    7.9646    1.8059 H   0  0  0  0  0  0  0  0  0  0  0  0
    6.0236   10.3736    1.9580 H   0  0  0  0  0  0  0  0  0  0  0  0
    2.2535   11.1602    0.0102 H   0  0  0  0  0  0  0  0  0  0  0  0
    1.8206    8.7484   -0.1177 H   0  0  0  0  0  0  0  0  0  0  0  0
    6.3968   12.2891    0.1280 H   0  0  0  0  0  0  0  0  0  0  0  0
    6.8453   14.6986    0.2340 H   0  0  0  0  0  0  0  0  0  0  0  0
    3.0141   15.3404    2.0890 H   0  0  0  0  0  0  0  0  0  0  0  0
    2.5618   12.9242    2.0064 H   0  0  0  0  0  0  0  0  0  0  0  0
    6.0293   16.8995    1.6942 H   0  0  0  0  0  0  0  0  0  0  0  0
    2.9723   19.1687    0.9773 H   0  0  0  0  0  0  0  0  0  0  0  0
    0.5444   19.2449    0.7963 H   0  0  0  0  0  0  0  0  0  0  0  0
    0.6632   15.8931   -1.9496 H   0  0  0  0  0  0  0  0  0  0  0  0
    3.0985   15.8256   -1.7443 H   0  0  0  0  0  0  0  0  0  0  0  0
   -1.5180   19.6810   -0.1982 H   0  0  0  0  0  0  0  0  0  0  0  0
   -1.6663   18.5577    1.1687 H   0  0  0  0  0  0  0  0  0  0  0  0
   -2.9400   18.6499   -0.0472 H   0  0  0  0  0  0  0  0  0  0  0  0
   -1.1059   18.7590   -2.5808 H   0  0  0  0  0  0  0  0  0  0  0  0
   -2.6176   17.8678   -2.3388 H   0  0  0  0  0  0  0  0  0  0  0  0
   -1.1699   17.0155   -2.8664 H   0  0  0  0  0  0  0  0  0  0  0  0
   -1.4510   16.0071    0.7643 H   0  0  0  0  0  0  0  0  0  0  0  0
   -1.3637   15.3900   -0.8892 H   0  0  0  0  0  0  0  0  0  0  0  0
   -2.8204   16.2125   -0.3397 H   0  0  0  0  0  0  0  0  0  0  0  0
  1  2  1  0  0  0  0
  1 41  1  0  0  0  0
  1 42  1  0  0  0  0
  1 43  1  0  0  0  0
  2  3  1  0  0  0  0
  2  4  1  0  0  0  0
  2  5  1  0  0  0  0
  3 44  1  0  0  0  0
  3 45  1  0  0  0  0
  3 46  1  0  0  0  0
  4 47  1  0  0  0  0
  4 48  1  0  0  0  0
  4 49  1  0  0  0  0
  5  6  2  0  0  0  0
  5 10  1  0  0  0  0
  6  7  1  0  0  0  0
  6 50  1  0  0  0  0
  7  8  2  0  0  0  0
  7 51  1  0  0  0  0
  8  9  1  0  0  0  0
  8 11  1  0  0  0  0
  9 10  2  0  0  0  0
  9 52  1  0  0  0  0
 10 53  1  0  0  0  0
 11 12  2  0  0  0  0
 11 13  2  0  0  0  0
 11 14  1  0  0  0  0
 14 15  1  0  0  0  0
 14 54  1  0  0  0  0
 15 16  2  0  0  0  0
 15 20  1  0  0  0  0
 16 17  1  0  0  0  0
 16 55  1  0  0  0  0
 17 18  2  0  0  0  0
 17 56  1  0  0  0  0
 18 19  1  0  0  0  0
 18 21  1  0  0  0  0
 19 20  2  0  0  0  0
 19 57  1  0  0  0  0
 20 58  1  0  0  0  0
 21 22  2  0  0  0  0
 21 26  1  0  0  0  0
 22 23  1  0  0  0  0
 22 59  1  0  0  0  0
 23 24  2  0  0  0  0
 23 60  1  0  0  0  0
 24 25  1  0  0  0  0
 24 27  1  0  0  0  0
 25 26  2  0  0  0  0
 25 61  1  0  0  0  0
 26 62  1  0  0  0  0
 27 28  1  0  0  0  0
 27 63  1  0  0  0  0
 28 29  2  0  0  0  0
 28 30  2  0  0  0  0
 28 31  1  0  0  0  0
 31 32  2  0  0  0  0
 31 36  1  0  0  0  0
 32 33  1  0  0  0  0
 32 64  1  0  0  0  0
 33 34  2  0  0  0  0
 33 65  1  0  0  0  0
 34 35  1  0  0  0  0
 34 37  1  0  0  0  0
 35 36  2  0  0  0  0
 35 66  1  0  0  0  0
 36 67  1  0  0  0  0
 37 38  1  0  0  0  0
 37 39  1  0  0  0  0
 37 40  1  0  0  0  0
 38 68  1  0  0  0  0
 38 69  1  0  0  0  0
 38 70  1  0  0  0  0
 39 71  1  0  0  0  0
 39 72  1  0  0  0  0
 39 73  1  0  0  0  0
 40 74  1  0  0  0  0
 40 75  1  0  0  0  0
 40 76  1  0  0  0  0
M  END
