
 OpenBabel10072620113D

 42 43  0  0  1  0  0  0  0  0999 V2000
    2.5980   -1.5611   -1.0068 C   0  0  0  0  0  0  0  0  0  0  0  0
    2.1652   -0.7348    0.2008 C   0  0  3  0  0  0  0  0  0  0  0  0
    2.6216   -1.4307    1.4934 C   0  0  0  0  0  0  0  0  0  0  0  0
    2.9061   -2.6261    1.5715 O   0  0  0  0  0  0  0  0  0  0  0  0
    2.5934   -0.6130    2.6071 N   0  0  0  0  0  0  0  0  0  0  0  0
    3.1559   -1.1072    3.7954 N   0  0  0  0  0  0  0  0  0  0  0  0
    2.9998   -0.3426    4.9426 C   0  0  0  0  0  0  0  0  0  0  0  0
    2.4884    0.7716    4.9126 O   0  0  0  0  0  0  0  0  0  0  0  0
    3.5276   -0.9863    6.0432 N   0  0  0  0  0  0  0  0  0  0  0  0
    3.4882   -0.5590    7.3847 C   0  0  0  0  0  0  0  0  0  0  0  0
    2.7187    0.5142    7.8362 C   0  0  0  0  0  0  0  0  0  0  0  0
    2.7190    0.8671    9.1888 C   0  0  0  0  0  0  0  0  0  0  0  0
    3.4917    0.1524   10.1030 C   0  0  0  0  0  0  0  0  0  0  0  0
    4.2741   -0.9260    9.6718 C   0  0  0  0  0  0  0  0  0  0  0  0
    4.2564   -1.2779    8.3100 C   0  0  0  0  0  0  0  0  0  0  0  0
    5.1216   -1.7143   10.6374 C   0  0  0  0  0  0  0  0  0  0  0  0
    5.1401   -1.1999   11.8979 F   0  0  0  0  0  0  0  0  0  0  0  0
    4.6981   -3.0025   10.7646 F   0  0  0  0  0  0  0  0  0  0  0  0
    6.4241   -1.7875   10.2445 F   0  0  0  0  0  0  0  0  0  0  0  0
    2.7781    0.5562    0.1740 O   0  0  0  0  0  0  0  0  0  0  0  0
    2.2962    1.5331   -0.6543 C   0  0  0  0  0  0  0  0  0  0  0  0
    3.0675    2.7067   -0.7512 C   0  0  0  0  0  0  0  0  0  0  0  0
    2.6709    3.7652   -1.5715 C   0  0  0  0  0  0  0  0  0  0  0  0
    1.4911    3.6596   -2.2983 C   0  0  0  0  0  0  0  0  0  0  0  0
    0.7091    2.5099   -2.2087 C   0  0  0  0  0  0  0  0  0  0  0  0
    1.1091    1.4488   -1.3877 C   0  0  0  0  0  0  0  0  0  0  0  0
    0.9941    4.9556   -3.3140 Cl  0  0  0  0  0  0  0  0  0  0  0  0
    4.5420    2.8849    0.1373 Cl  0  0  0  0  0  0  0  0  0  0  0  0
    2.1550   -2.5619   -0.9819 H   0  0  0  0  0  0  0  0  0  0  0  0
    3.6887   -1.6704   -1.0276 H   0  0  0  0  0  0  0  0  0  0  0  0
    2.3130   -1.0839   -1.9492 H   0  0  0  0  0  0  0  0  0  0  0  0
    1.0740   -0.6617    0.2735 H   0  0  0  0  0  0  0  0  0  0  0  0
    2.5614    0.4026    2.5120 H   0  0  0  0  0  0  0  0  0  0  0  0
    3.1565   -2.1218    3.8653 H   0  0  0  0  0  0  0  0  0  0  0  0
    4.1167   -1.7799    5.8348 H   0  0  0  0  0  0  0  0  0  0  0  0
    2.0956    1.0926    7.1598 H   0  0  0  0  0  0  0  0  0  0  0  0
    2.1117    1.7048    9.5254 H   0  0  0  0  0  0  0  0  0  0  0  0
    3.4797    0.4433   11.1524 H   0  0  0  0  0  0  0  0  0  0  0  0
    4.8630   -2.1205    7.9809 H   0  0  0  0  0  0  0  0  0  0  0  0
    3.2781    4.6638   -1.6388 H   0  0  0  0  0  0  0  0  0  0  0  0
   -0.2161    2.4298   -2.7752 H   0  0  0  0  0  0  0  0  0  0  0  0
    0.4652    0.5762   -1.3517 H   0  0  0  0  0  0  0  0  0  0  0  0
  1  2  1  0  0  0  0
  1 29  1  0  0  0  0
  1 30  1  0  0  0  0
  1 31  1  0  0  0  0
  2  3  1  0  0  0  0
  2 20  1  0  0  0  0
  2 32  1  0  0  0  0
  3  4  2  0  0  0  0
  3  5  1  0  0  0  0
  5  6  1  0  0  0  0
  5 33  1  0  0  0  0
  6  7  1  0  0  0  0
  6 34  1  0  0  0  0
  7  8  2  0  0  0  0
  7  9  1  0  0  0  0
  9 10  1  0  0  0  0
  9 35  1  0  0  0  0
 10 11  2  0  0  0  0
 10 15  1  0  0  0  0
 11 12  1  0  0  0  0
 11 36  1  0  0  0  0
 12 13  2  0  0  0  0
 12 37  1  0  0  0  0
 13 14  1  0  0  0  0
 13 38  1  0  0  0  0
 14 15  2  0  0  0  0
 14 16  1  0  0  0  0
 15 39  1  0  0  0  0
 16 17  1  0  0  0  0
 16 18  1  0  0  0  0
 16 19  1  0  0  0  0
 20 21  1  0  0  0  0
 21 22  2  0  0  0  0
 21 26  1  0  0  0  0
 22 23  1  0  0  0  0
 22 28  1  0  0  0  0
 23 24  2  0  0  0  0
 23 40  1  0  0  0  0
 24 25  1  0  0  0  0
 24 27  1  0  0  0  0
 25 26  2  0  0  0  0
 25 41  1  0  0  0  0
 26 42  1  0  0  0  0
M  END
