
 OpenBabel10072619443D

 53 55  0  0  0  0  0  0  0  0999 V2000
    3.0534    1.5955   -0.1761 C   0  0  0  0  0  0  0  0  0  0  0  0
    1.6842    1.8582   -0.2686 C   0  0  0  0  0  0  0  0  0  0  0  0
    0.7996    0.7895   -0.2011 C   0  0  0  0  0  0  0  0  0  0  0  0
    1.2772   -0.5338   -0.0878 C   0  0  0  0  0  0  0  0  0  0  0  0
    2.6274   -0.8096    0.0418 C   0  0  0  0  0  0  0  0  0  0  0  0
    3.5113    0.2749   -0.0080 C   0  0  0  0  0  0  0  0  0  0  0  0
    5.2498    0.0033    0.2346 S   0  0  0  0  0  0  0  0  0  0  0  0
    5.6881    0.9494    1.2350 O   0  0  0  0  0  0  0  0  0  0  0  0
    5.4858   -1.4163    0.3568 O   0  0  0  0  0  0  0  0  0  0  0  0
    5.9018    0.5247   -1.2313 N   0  0  0  0  0  0  0  0  0  0  0  0
    6.0038   -0.4742   -2.3163 C   0  0  0  0  0  0  0  0  0  0  0  0
    6.2049    0.2348   -3.6562 C   0  0  0  0  0  0  0  0  0  0  0  0
    7.3643    1.0640   -3.6269 O   0  0  0  0  0  0  0  0  0  0  0  0
    0.0827   -1.4196   -0.0213 C   0  0  0  0  0  0  0  0  0  0  0  0
   -0.0557   -2.7056   -0.0157 N   0  0  0  0  0  0  0  0  0  0  0  0
    1.0371   -3.4793   -0.2661 N   0  0  0  0  0  0  0  0  0  0  0  0
    0.9981   -4.8462   -0.1604 C   0  0  0  0  0  0  0  0  0  0  0  0
    1.8641   -5.5735   -0.6321 O   0  0  0  0  0  0  0  0  0  0  0  0
   -0.0750   -5.3246    0.5136 N   0  0  0  0  0  0  0  0  0  0  0  0
   -1.1003   -0.5304    0.0127 C   0  0  0  0  0  0  0  0  0  0  0  0
   -0.6470    0.7884   -0.1429 C   0  0  0  0  0  0  0  0  0  0  0  0
   -1.5580    1.8336   -0.1738 C   0  0  0  0  0  0  0  0  0  0  0  0
   -2.9214    1.5318   -0.0428 C   0  0  0  0  0  0  0  0  0  0  0  0
   -3.3488    0.1958    0.1167 C   0  0  0  0  0  0  0  0  0  0  0  0
   -2.4362   -0.8627    0.1442 C   0  0  0  0  0  0  0  0  0  0  0  0
   -5.0750   -0.1549    0.3340 S   0  0  0  0  0  0  0  0  0  0  0  0
   -5.1830   -1.0770    1.4411 O   0  0  0  0  0  0  0  0  0  0  0  0
   -5.8077    1.0906    0.2908 O   0  0  0  0  0  0  0  0  0  0  0  0
   -5.4247   -1.0274   -1.0556 N   0  0  0  0  0  0  0  0  0  0  0  0
   -5.8583   -0.2803   -2.2502 C   0  0  0  0  0  0  0  0  0  0  0  0
   -5.8583   -1.2268   -3.4528 C   0  0  0  0  0  0  0  0  0  0  0  0
   -6.7097   -2.3438   -3.1914 O   0  0  0  0  0  0  0  0  0  0  0  0
    3.7649    2.4202   -0.1965 H   0  0  0  0  0  0  0  0  0  0  0  0
    1.3330    2.8822   -0.3561 H   0  0  0  0  0  0  0  0  0  0  0  0
    2.9967   -1.8098    0.2346 H   0  0  0  0  0  0  0  0  0  0  0  0
    6.7528    1.0636   -1.0567 H   0  0  0  0  0  0  0  0  0  0  0  0
    5.0976   -1.0844   -2.3689 H   0  0  0  0  0  0  0  0  0  0  0  0
    6.8634   -1.1179   -2.1048 H   0  0  0  0  0  0  0  0  0  0  0  0
    5.3424    0.8581   -3.9121 H   0  0  0  0  0  0  0  0  0  0  0  0
    6.3385   -0.5029   -4.4530 H   0  0  0  0  0  0  0  0  0  0  0  0
    7.1051    1.9002   -3.2018 H   0  0  0  0  0  0  0  0  0  0  0  0
    1.7865   -3.1217   -0.8418 H   0  0  0  0  0  0  0  0  0  0  0  0
   -0.8374   -4.6700    0.6291 H   0  0  0  0  0  0  0  0  0  0  0  0
   -0.2450   -6.3176    0.4966 H   0  0  0  0  0  0  0  0  0  0  0  0
   -1.2342    2.8658   -0.2857 H   0  0  0  0  0  0  0  0  0  0  0  0
   -3.6472    2.3451   -0.0496 H   0  0  0  0  0  0  0  0  0  0  0  0
   -2.7516   -1.8933    0.2725 H   0  0  0  0  0  0  0  0  0  0  0  0
   -5.9935   -1.8509   -0.8441 H   0  0  0  0  0  0  0  0  0  0  0  0
   -5.1891    0.5623   -2.4475 H   0  0  0  0  0  0  0  0  0  0  0  0
   -6.8757    0.0866   -2.0752 H   0  0  0  0  0  0  0  0  0  0  0  0
   -4.8475   -1.5931   -3.6661 H   0  0  0  0  0  0  0  0  0  0  0  0
   -6.2327   -0.7113   -4.3428 H   0  0  0  0  0  0  0  0  0  0  0  0
   -6.1666   -3.1471   -3.2842 H   0  0  0  0  0  0  0  0  0  0  0  0
  1  2  2  0  0  0  0
  1  6  1  0  0  0  0
  1 33  1  0  0  0  0
  2  3  1  0  0  0  0
  2 34  1  0  0  0  0
  3  4  2  0  0  0  0
  3 21  1  0  0  0  0
  4  5  1  0  0  0  0
  4 14  1  0  0  0  0
  5  6  2  0  0  0  0
  5 35  1  0  0  0  0
  6  7  1  0  0  0  0
  7  8  2  0  0  0  0
  7  9  2  0  0  0  0
  7 10  1  0  0  0  0
 10 11  1  0  0  0  0
 10 36  1  0  0  0  0
 11 12  1  0  0  0  0
 11 37  1  0  0  0  0
 11 38  1  0  0  0  0
 12 13  1  0  0  0  0
 12 39  1  0  0  0  0
 12 40  1  0  0  0  0
 13 41  1  0  0  0  0
 14 15  2  0  0  0  0
 14 20  1  0  0  0  0
 15 16  1  0  0  0  0
 16 17  1  0  0  0  0
 16 42  1  0  0  0  0
 17 18  2  0  0  0  0
 17 19  1  0  0  0  0
 19 43  1  0  0  0  0
 19 44  1  0  0  0  0
 20 21  2  0  0  0  0
 20 25  1  0  0  0  0
 21 22  1  0  0  0  0
 22 23  2  0  0  0  0
 22 45  1  0  0  0  0
 23 24  1  0  0  0  0
 23 46  1  0  0  0  0
 24 25  2  0  0  0  0
 24 26  1  0  0  0  0
 25 47  1  0  0  0  0
 26 27  2  0  0  0  0
 26 28  2  0  0  0  0
 26 29  1  0  0  0  0
 29 30  1  0  0  0  0
 29 48  1  0  0  0  0
 30 31  1  0  0  0  0
 30 49  1  0  0  0  0
 30 50  1  0  0  0  0
 31 32  1  0  0  0  0
 31 51  1  0  0  0  0
 31 52  1  0  0  0  0
 32 53  1  0  0  0  0
M  END
