
 OpenBabel10072620213D

 53 56  0  0  0  0  0  0  0  0999 V2000
    1.5256   -3.1202   -0.9584 C   0  0  0  0  0  0  0  0  0  0  0  0
    2.4893   -2.2660   -1.7659 C   0  0  0  0  0  0  0  0  0  0  0  0
    2.6648   -2.5021   -3.0023 O   0  0  0  0  0  0  0  0  0  0  0  0
    3.1935   -1.2043   -1.1389 O   0  0  0  0  0  0  0  0  0  0  0  0
    4.6134   -1.2073   -1.1205 C   0  0  0  0  0  0  0  0  0  0  0  0
    5.2671   -0.0515   -1.1088 C   0  0  0  0  0  0  0  0  0  0  0  0
    6.6298   -0.0204   -0.9357 C   0  0  0  0  0  0  0  0  0  0  0  0
    7.3559   -1.1767   -0.8632 C   0  0  0  0  0  0  0  0  0  0  0  0
    6.6657   -2.3010   -0.8036 C   0  0  0  0  0  0  0  0  0  0  0  0
    5.2903   -2.4157   -1.1153 C   0  0  0  0  0  0  0  0  0  0  0  0
    4.6610   -3.6571   -1.3971 O   0  0  0  0  0  0  0  0  0  0  0  0
    5.4176   -4.8585   -1.3719 C   0  0  0  0  0  0  0  0  0  0  0  0
    8.8759   -1.1685   -0.8518 C   0  0  0  0  0  0  0  0  0  0  0  0
    9.5469   -1.0968    0.3295 C   0  0  0  0  0  0  0  0  0  0  0  0
    8.7766   -1.0249    1.6379 C   0  0  0  0  0  0  0  0  0  0  0  0
    8.1377   -0.9653    2.7233 N   0  0  0  0  0  0  0  0  0  0  0  0
   11.0668   -1.0886    0.3408 C   0  0  0  0  0  0  0  0  0  0  0  0
   11.7785   -1.1480   -0.7474 N   0  0  0  0  0  0  0  0  0  0  0  0
   13.1391   -1.1020   -0.4929 C   0  0  0  0  0  0  0  0  0  0  0  0
   13.4459   -1.0314    0.8411 C   0  0  0  0  0  0  0  0  0  0  0  0
   11.9900   -0.9995    1.8013 S   0  0  0  0  0  0  0  0  0  0  0  0
   14.1921   -1.1274   -1.5888 C   0  0  0  0  0  0  0  0  0  0  0  0
   15.3643   -1.6755   -1.2909 C   0  0  0  0  0  0  0  0  0  0  0  0
   16.3324   -1.8231   -2.2547 C   0  0  0  0  0  0  0  0  0  0  0  0
   16.1496   -1.3291   -3.5165 C   0  0  0  0  0  0  0  0  0  0  0  0
   14.9472   -0.8592   -3.7948 C   0  0  0  0  0  0  0  0  0  0  0  0
   14.6150   -0.6466   -5.1799 C   0  0  0  0  0  0  0  0  0  0  0  0
   15.5806   -0.9449   -6.2060 C   0  0  0  0  0  0  0  0  0  0  0  0
   15.2484   -0.7323   -7.5912 C   0  0  0  0  0  0  0  0  0  0  0  0
   12.8249    0.2885   -3.1037 C   0  0  0  0  0  0  0  0  0  0  0  0
   13.9626   -0.5502   -2.8268 C   0  0  0  0  0  0  0  0  0  0  0  0
    4.5513    1.1634   -1.2767 O   0  0  0  0  0  0  0  0  0  0  0  0
    5.2442    2.4028   -1.2669 C   0  0  0  0  0  0  0  0  0  0  0  0
    1.0911   -3.8643   -1.5927 H   0  0  0  0  0  0  0  0  0  0  0  0
    0.7527   -2.5006   -0.5541 H   0  0  0  0  0  0  0  0  0  0  0  0
    2.0548   -3.5970   -0.1599 H   0  0  0  0  0  0  0  0  0  0  0  0
    7.1122    0.8887   -0.8593 H   0  0  0  0  0  0  0  0  0  0  0  0
    7.1642   -3.1553   -0.5092 H   0  0  0  0  0  0  0  0  0  0  0  0
    4.7811   -5.6858   -1.6072 H   0  0  0  0  0  0  0  0  0  0  0  0
    5.8359   -4.9962   -0.3968 H   0  0  0  0  0  0  0  0  0  0  0  0
    6.2059   -4.7987   -2.0930 H   0  0  0  0  0  0  0  0  0  0  0  0
    9.3988   -1.2173   -1.7401 H   0  0  0  0  0  0  0  0  0  0  0  0
   14.4038   -1.0013    1.2237 H   0  0  0  0  0  0  0  0  0  0  0  0
   15.5499   -1.9935   -0.3269 H   0  0  0  0  0  0  0  0  0  0  0  0
   17.2102   -2.3138   -2.0229 H   0  0  0  0  0  0  0  0  0  0  0  0
   16.9103   -1.3237   -4.2138 H   0  0  0  0  0  0  0  0  0  0  0  0
   13.6851   -0.2806   -5.4372 H   0  0  0  0  0  0  0  0  0  0  0  0
   16.5106   -1.3109   -5.9487 H   0  0  0  0  0  0  0  0  0  0  0  0
   15.3804   -0.7595   -8.6143 H   0  0  0  0  0  0  0  0  0  0  0  0
   12.0262    0.7836   -2.6772 H   0  0  0  0  0  0  0  0  0  0  0  0
    4.5469    3.2023   -1.4061 H   0  0  0  0  0  0  0  0  0  0  0  0
    5.9640    2.4153   -2.0585 H   0  0  0  0  0  0  0  0  0  0  0  0
    5.7439    2.5247   -0.3286 H   0  0  0  0  0  0  0  0  0  0  0  0
  1  2  1  0  0  0  0
  1 34  1  0  0  0  0
  1 35  1  0  0  0  0
  1 36  1  0  0  0  0
  2  3  2  0  0  0  0
  2  4  1  0  0  0  0
  4  5  1  0  0  0  0
  5  6  2  0  0  0  0
  5 10  1  0  0  0  0
  6  7  1  0  0  0  0
  6 32  1  0  0  0  0
  7  8  2  0  0  0  0
  7 37  1  0  0  0  0
  8  9  1  0  0  0  0
  8 13  1  0  0  0  0
  9 10  2  0  0  0  0
  9 38  1  0  0  0  0
 10 11  1  0  0  0  0
 11 12  1  0  0  0  0
 12 39  1  0  0  0  0
 12 40  1  0  0  0  0
 12 41  1  0  0  0  0
 13 14  2  0  0  0  0
 13 42  1  0  0  0  0
 14 15  1  0  0  0  0
 14 17  1  0  0  0  0
 15 16  3  0  0  0  0
 17 18  2  0  0  0  0
 17 21  1  0  0  0  0
 18 19  1  0  0  0  0
 19 20  2  0  0  0  0
 19 22  1  0  0  0  0
 20 21  1  0  0  0  0
 20 43  1  0  0  0  0
 22 23  2  0  0  0  0
 22 31  1  0  0  0  0
 23 24  1  0  0  0  0
 23 44  1  0  0  0  0
 24 25  2  0  0  0  0
 24 45  1  0  0  0  0
 25 26  1  0  0  0  0
 25 46  1  0  0  0  0
 26 27  2  0  0  0  0
 26 31  1  0  0  0  0
 27 28  1  0  0  0  0
 27 47  1  0  0  0  0
 28 29  2  0  0  0  0
 28 48  1  0  0  0  0
 29 30  1  0  0  0  0
 29 49  1  0  0  0  0
 30 31  2  0  0  0  0
 30 50  1  0  0  0  0
 32 33  1  0  0  0  0
 33 51  1  0  0  0  0
 33 52  1  0  0  0  0
 33 53  1  0  0  0  0
M  END
