
 OpenBabel10072619543D

 44 43  0  0  0  0  0  0  0  0999 V2000
    4.0157   -3.6217   -3.0618 C   0  0  0  0  0  0  0  0  0  0  0  0
    4.1534   -2.1304   -3.1139 C   0  0  0  0  0  0  0  0  0  0  0  0
    3.5566   -1.3214   -2.2215 C   0  0  0  0  0  0  0  0  0  0  0  0
    5.0164   -1.6216   -4.2204 C   0  0  0  0  0  0  0  0  0  0  0  0
    5.5946   -2.3595   -5.0052 O   0  0  0  0  0  0  0  0  0  0  0  0
    5.0823   -0.2664   -4.2186 O   0  0  0  0  0  0  0  0  0  0  0  0
    5.9313    0.3204   -5.2178 C   0  0  0  0  0  0  0  0  0  0  0  0
    7.3823    0.3778   -4.7403 C   0  0  0  0  0  0  0  0  0  0  0  0
    7.5330    1.2162   -3.4653 C   0  0  0  0  0  0  0  0  0  0  0  0
    8.9553    1.1916   -2.9006 C   0  0  0  0  0  0  0  0  0  0  0  0
    9.9704    1.7042   -3.8710 N   0  0  0  0  0  0  0  0  0  0  0  0
    9.8642    3.1714   -4.0922 C   0  0  0  0  0  0  0  0  0  0  0  0
   11.5890    1.2192   -3.5081 S   0  0  0  0  0  0  0  0  0  0  0  0
   12.4489    1.9001   -4.4556 O   0  0  0  0  0  0  0  0  0  0  0  0
   11.7585    1.4525   -2.0878 O   0  0  0  0  0  0  0  0  0  0  0  0
   11.6176   -0.5808   -3.8501 C   0  0  0  0  0  0  0  0  0  0  0  0
   13.0475   -1.0727   -3.9537 C   0  0  0  0  0  0  0  0  0  0  0  0
   13.9586   -0.8609   -2.7584 C   0  0  0  0  0  0  0  0  0  0  0  0
   13.4592   -1.5389   -1.4926 C   0  0  0  0  0  0  0  0  0  0  0  0
   13.2729   -2.8671   -1.6675 F   0  0  0  0  0  0  0  0  0  0  0  0
   14.3361   -1.3897   -0.4698 F   0  0  0  0  0  0  0  0  0  0  0  0
   12.2829   -1.0258   -1.0716 F   0  0  0  0  0  0  0  0  0  0  0  0
   15.1972   -1.3648   -3.0700 F   0  0  0  0  0  0  0  0  0  0  0  0
   14.1697    0.4649   -2.5463 F   0  0  0  0  0  0  0  0  0  0  0  0
   13.0105   -2.4193   -4.2298 F   0  0  0  0  0  0  0  0  0  0  0  0
   13.6374   -0.5242   -5.0615 F   0  0  0  0  0  0  0  0  0  0  0  0
   10.9499   -1.2960   -2.8955 F   0  0  0  0  0  0  0  0  0  0  0  0
   10.9491   -0.8642   -5.0148 F   0  0  0  0  0  0  0  0  0  0  0  0
    3.4077   -3.9493   -2.2127 H   0  0  0  0  0  0  0  0  0  0  0  0
    4.9984   -4.0941   -2.9626 H   0  0  0  0  0  0  0  0  0  0  0  0
    3.5390   -3.9920   -3.9748 H   0  0  0  0  0  0  0  0  0  0  0  0
    2.9369   -1.7236   -1.4260 H   0  0  0  0  0  0  0  0  0  0  0  0
    3.6640   -0.2416   -2.2498 H   0  0  0  0  0  0  0  0  0  0  0  0
    5.5611    1.3353   -5.4000 H   0  0  0  0  0  0  0  0  0  0  0  0
    5.8509   -0.2191   -6.1693 H   0  0  0  0  0  0  0  0  0  0  0  0
    7.9963    0.7979   -5.5453 H   0  0  0  0  0  0  0  0  0  0  0  0
    7.7451   -0.6373   -4.5420 H   0  0  0  0  0  0  0  0  0  0  0  0
    6.8575    0.8308   -2.6904 H   0  0  0  0  0  0  0  0  0  0  0  0
    7.2109    2.2450   -3.6609 H   0  0  0  0  0  0  0  0  0  0  0  0
    9.1905    0.1579   -2.6338 H   0  0  0  0  0  0  0  0  0  0  0  0
    8.9950    1.7856   -1.9803 H   0  0  0  0  0  0  0  0  0  0  0  0
    8.8489    3.4514   -4.3852 H   0  0  0  0  0  0  0  0  0  0  0  0
   10.5130    3.4779   -4.9184 H   0  0  0  0  0  0  0  0  0  0  0  0
   10.1297    3.7223   -3.1847 H   0  0  0  0  0  0  0  0  0  0  0  0
  1  2  1  0  0  0  0
  1 29  1  0  0  0  0
  1 30  1  0  0  0  0
  1 31  1  0  0  0  0
  2  3  2  0  0  0  0
  2  4  1  0  0  0  0
  3 32  1  0  0  0  0
  3 33  1  0  0  0  0
  4  5  2  0  0  0  0
  4  6  1  0  0  0  0
  6  7  1  0  0  0  0
  7  8  1  0  0  0  0
  7 34  1  0  0  0  0
  7 35  1  0  0  0  0
  8  9  1  0  0  0  0
  8 36  1  0  0  0  0
  8 37  1  0  0  0  0
  9 10  1  0  0  0  0
  9 38  1  0  0  0  0
  9 39  1  0  0  0  0
 10 11  1  0  0  0  0
 10 40  1  0  0  0  0
 10 41  1  0  0  0  0
 11 12  1  0  0  0  0
 11 13  1  0  0  0  0
 12 42  1  0  0  0  0
 12 43  1  0  0  0  0
 12 44  1  0  0  0  0
 13 14  2  0  0  0  0
 13 15  2  0  0  0  0
 13 16  1  0  0  0  0
 16 17  1  0  0  0  0
 16 27  1  0  0  0  0
 16 28  1  0  0  0  0
 17 18  1  0  0  0  0
 17 25  1  0  0  0  0
 17 26  1  0  0  0  0
 18 19  1  0  0  0  0
 18 23  1  0  0  0  0
 18 24  1  0  0  0  0
 19 20  1  0  0  0  0
 19 21  1  0  0  0  0
 19 22  1  0  0  0  0
M  END
