
 OpenBabel10072620223D

108114  0  0  0  0  0  0  0  0999 V2000
    2.8164    0.7073    0.7601 C   0  0  0  0  0  0  0  0  0  0  0  0
    1.4904    0.2545    0.2062 C   0  0  0  0  0  0  0  0  0  0  0  0
    1.4639   -0.9972   -0.4314 C   0  0  0  0  0  0  0  0  0  0  0  0
    0.2694   -1.5967   -0.8516 C   0  0  0  0  0  0  0  0  0  0  0  0
   -0.9409   -0.9179   -0.5984 C   0  0  0  0  0  0  0  0  0  0  0  0
   -0.9299    0.4201   -0.0907 C   0  0  0  0  0  0  0  0  0  0  0  0
    0.3006    1.0012    0.3358 C   0  0  0  0  0  0  0  0  0  0  0  0
    0.3042    2.3108    0.8754 N   0  0  0  0  0  0  0  0  0  0  0  0
    1.0177    3.4895    0.5370 C   0  0  0  0  0  0  0  0  0  0  0  0
    0.9613    4.6404    1.3665 C   0  0  0  0  0  0  0  0  0  0  0  0
    1.8096    5.7433    1.1380 C   0  0  0  0  0  0  0  0  0  0  0  0
    2.7001    5.7552    0.0319 C   0  0  0  0  0  0  0  0  0  0  0  0
    2.6982    4.6379   -0.8162 C   0  0  0  0  0  0  0  0  0  0  0  0
    1.8784    3.5282   -0.5646 C   0  0  0  0  0  0  0  0  0  0  0  0
    3.4958    6.8968   -0.2506 N   0  0  0  0  0  0  0  0  0  0  0  0
    4.4810    7.1074   -1.2439 C   0  0  0  0  0  0  0  0  0  0  0  0
    5.8596    7.1737   -0.8968 C   0  0  0  0  0  0  0  0  0  0  0  0
    6.8331    7.3882   -1.9218 C   0  0  0  0  0  0  0  0  0  0  0  0
    6.4387    7.4399   -3.2794 C   0  0  0  0  0  0  0  0  0  0  0  0
    5.0678    7.3998   -3.5812 C   0  0  0  0  0  0  0  0  0  0  0  0
    4.0915    7.2725   -2.5848 C   0  0  0  0  0  0  0  0  0  0  0  0
    2.6418    7.3570   -2.9788 C   0  0  0  0  0  0  0  0  0  0  0  0
    7.3846    7.5921   -4.4421 C   0  0  0  0  0  0  0  0  0  0  0  0
    8.5677    7.6223   -1.4749 S   0  0  0  0  0  0  0  0  0  0  0  0
    8.9990    6.4316   -0.7762 O   0  0  0  0  0  0  0  0  0  0  0  0
    9.3338    8.1333   -2.5906 O   0  0  0  0  0  0  0  0  0  0  0  0
    8.5123    8.8654   -0.3274 N   0  0  0  0  0  0  0  0  0  0  0  0
    8.7224   10.2636   -0.7578 C   0  0  0  0  0  0  0  0  0  0  0  0
    8.9155   11.1271    0.4984 C   0  0  0  0  0  0  0  0  0  0  0  0
    9.1048   12.6007    0.1444 C   0  0  0  0  0  0  0  0  0  0  0  0
    7.9561   13.1219   -0.7145 C   0  0  0  0  0  0  0  0  0  0  0  0
    7.7418   12.2587   -1.9540 C   0  0  0  0  0  0  0  0  0  0  0  0
    7.5485   10.7875   -1.5882 C   0  0  0  0  0  0  0  0  0  0  0  0
    6.2253    7.0946    0.5689 C   0  0  0  0  0  0  0  0  0  0  0  0
    1.7921    6.8850    2.0981 C   0  0  0  0  0  0  0  0  0  0  0  0
    2.5604    7.8370    1.9630 O   0  0  0  0  0  0  0  0  0  0  0  0
    0.8674    6.8834    3.2451 C   0  0  0  0  0  0  0  0  0  0  0  0
    0.8642    7.9583    4.1504 C   0  0  0  0  0  0  0  0  0  0  0  0
   -0.0450    7.9805    5.2103 C   0  0  0  0  0  0  0  0  0  0  0  0
   -0.9357    6.9236    5.3828 C   0  0  0  0  0  0  0  0  0  0  0  0
   -0.9199    5.8477    4.4934 C   0  0  0  0  0  0  0  0  0  0  0  0
   -0.0214    5.8312    3.4172 C   0  0  0  0  0  0  0  0  0  0  0  0
   -0.0477    4.7141    2.4576 C   0  0  0  0  0  0  0  0  0  0  0  0
   -0.9425    3.8769    2.5433 O   0  0  0  0  0  0  0  0  0  0  0  0
   -2.2074    1.2268    0.0183 C   0  0  0  0  0  0  0  0  0  0  0  0
   -2.5098   -1.7890   -0.8130 S   0  0  0  0  0  0  0  0  0  0  0  0
   -3.2811   -1.0592   -1.7984 O   0  0  0  0  0  0  0  0  0  0  0  0
   -2.3098   -3.2132   -0.9429 O   0  0  0  0  0  0  0  0  0  0  0  0
   -3.2902   -1.5662    0.6649 N   0  0  0  0  0  0  0  0  0  0  0  0
   -3.0864   -2.5118    1.7828 C   0  0  0  0  0  0  0  0  0  0  0  0
   -4.0395   -2.0875    2.9125 C   0  0  0  0  0  0  0  0  0  0  0  0
   -3.8632   -2.9309    4.1715 C   0  0  0  0  0  0  0  0  0  0  0  0
   -2.4133   -2.9296    4.6410 C   0  0  0  0  0  0  0  0  0  0  0  0
   -1.4726   -3.3842    3.5320 C   0  0  0  0  0  0  0  0  0  0  0  0
   -1.6356   -2.5298    2.2752 C   0  0  0  0  0  0  0  0  0  0  0  0
    0.3710   -2.9563   -1.4929 C   0  0  0  0  0  0  0  0  0  0  0  0
    3.3714   -0.1505    1.1581 H   0  0  0  0  0  0  0  0  0  0  0  0
    2.6974    1.4009    1.5969 H   0  0  0  0  0  0  0  0  0  0  0  0
    3.4203    1.1737   -0.0223 H   0  0  0  0  0  0  0  0  0  0  0  0
    2.4011   -1.5377   -0.5675 H   0  0  0  0  0  0  0  0  0  0  0  0
   -0.5093    2.5147    1.4668 H   0  0  0  0  0  0  0  0  0  0  0  0
    3.3507    4.6010   -1.6862 H   0  0  0  0  0  0  0  0  0  0  0  0
    1.9222    2.6898   -1.2579 H   0  0  0  0  0  0  0  0  0  0  0  0
    3.5767    7.5299    0.5483 H   0  0  0  0  0  0  0  0  0  0  0  0
    4.7470    7.4984   -4.6186 H   0  0  0  0  0  0  0  0  0  0  0  0
    2.5214    7.9680   -3.8788 H   0  0  0  0  0  0  0  0  0  0  0  0
    2.0447    7.8423   -2.1999 H   0  0  0  0  0  0  0  0  0  0  0  0
    2.2355    6.3637   -3.1766 H   0  0  0  0  0  0  0  0  0  0  0  0
    8.2114    6.8790   -4.3746 H   0  0  0  0  0  0  0  0  0  0  0  0
    7.7569    8.6193   -4.4947 H   0  0  0  0  0  0  0  0  0  0  0  0
    6.8887    7.3821   -5.3973 H   0  0  0  0  0  0  0  0  0  0  0  0
    9.0017    8.5729    0.5184 H   0  0  0  0  0  0  0  0  0  0  0  0
    9.6500   10.3237   -1.3391 H   0  0  0  0  0  0  0  0  0  0  0  0
    9.7874   10.7758    1.0640 H   0  0  0  0  0  0  0  0  0  0  0  0
    8.0507   11.0215    1.1668 H   0  0  0  0  0  0  0  0  0  0  0  0
   10.0520   12.7277   -0.3949 H   0  0  0  0  0  0  0  0  0  0  0  0
    9.1793   13.1957    1.0623 H   0  0  0  0  0  0  0  0  0  0  0  0
    8.1564   14.1569   -1.0139 H   0  0  0  0  0  0  0  0  0  0  0  0
    7.0357   13.1354   -0.1183 H   0  0  0  0  0  0  0  0  0  0  0  0
    8.6077   12.3565   -2.6211 H   0  0  0  0  0  0  0  0  0  0  0  0
    6.8693   12.6216   -2.5095 H   0  0  0  0  0  0  0  0  0  0  0  0
    7.4410   10.2139   -2.5129 H   0  0  0  0  0  0  0  0  0  0  0  0
    6.6084   10.6696   -1.0346 H   0  0  0  0  0  0  0  0  0  0  0  0
    5.5310    6.4545    1.1202 H   0  0  0  0  0  0  0  0  0  0  0  0
    6.1996    8.0942    1.0150 H   0  0  0  0  0  0  0  0  0  0  0  0
    7.2004    6.6431    0.7472 H   0  0  0  0  0  0  0  0  0  0  0  0
    1.5559    8.7906    4.0229 H   0  0  0  0  0  0  0  0  0  0  0  0
   -0.0621    8.8241    5.8970 H   0  0  0  0  0  0  0  0  0  0  0  0
   -1.6482    6.9411    6.2050 H   0  0  0  0  0  0  0  0  0  0  0  0
   -1.6211    5.0288    4.6387 H   0  0  0  0  0  0  0  0  0  0  0  0
   -2.8204    1.1201   -0.8789 H   0  0  0  0  0  0  0  0  0  0  0  0
   -2.0250    2.3032    0.0839 H   0  0  0  0  0  0  0  0  0  0  0  0
   -2.7766    0.9402    0.9059 H   0  0  0  0  0  0  0  0  0  0  0  0
   -4.2411   -1.2266    0.5204 H   0  0  0  0  0  0  0  0  0  0  0  0
   -3.3823   -3.5166    1.4595 H   0  0  0  0  0  0  0  0  0  0  0  0
   -5.0775   -2.1670    2.5663 H   0  0  0  0  0  0  0  0  0  0  0  0
   -3.8741   -1.0294    3.1560 H   0  0  0  0  0  0  0  0  0  0  0  0
   -4.1841   -3.9601    3.9707 H   0  0  0  0  0  0  0  0  0  0  0  0
   -4.5119   -2.5471    4.9671 H   0  0  0  0  0  0  0  0  0  0  0  0
   -2.3003   -3.5859    5.5101 H   0  0  0  0  0  0  0  0  0  0  0  0
   -2.1373   -1.9198    4.9663 H   0  0  0  0  0  0  0  0  0  0  0  0
   -1.6817   -4.4333    3.2864 H   0  0  0  0  0  0  0  0  0  0  0  0
   -0.4355   -3.3361    3.8863 H   0  0  0  0  0  0  0  0  0  0  0  0
   -0.9722   -2.9318    1.5033 H   0  0  0  0  0  0  0  0  0  0  0  0
   -1.2956   -1.5084    2.4866 H   0  0  0  0  0  0  0  0  0  0  0  0
    1.3719   -3.1287   -1.9049 H   0  0  0  0  0  0  0  0  0  0  0  0
   -0.3110   -3.0506   -2.3435 H   0  0  0  0  0  0  0  0  0  0  0  0
    0.1802   -3.7439   -0.7572 H   0  0  0  0  0  0  0  0  0  0  0  0
  1  2  1  0  0  0  0
  1 57  1  0  0  0  0
  1 58  1  0  0  0  0
  1 59  1  0  0  0  0
  2  3  2  0  0  0  0
  2  7  1  0  0  0  0
  3  4  1  0  0  0  0
  3 60  1  0  0  0  0
  4  5  2  0  0  0  0
  4 56  1  0  0  0  0
  5  6  1  0  0  0  0
  5 46  1  0  0  0  0
  6  7  2  0  0  0  0
  6 45  1  0  0  0  0
  7  8  1  0  0  0  0
  8  9  1  0  0  0  0
  8 61  1  0  0  0  0
  9 10  2  0  0  0  0
  9 14  1  0  0  0  0
 10 11  1  0  0  0  0
 10 43  1  0  0  0  0
 11 12  2  0  0  0  0
 11 35  1  0  0  0  0
 12 13  1  0  0  0  0
 12 15  1  0  0  0  0
 13 14  2  0  0  0  0
 13 62  1  0  0  0  0
 14 63  1  0  0  0  0
 15 16  1  0  0  0  0
 15 64  1  0  0  0  0
 16 17  2  0  0  0  0
 16 21  1  0  0  0  0
 17 18  1  0  0  0  0
 17 34  1  0  0  0  0
 18 19  2  0  0  0  0
 18 24  1  0  0  0  0
 19 20  1  0  0  0  0
 19 23  1  0  0  0  0
 20 21  2  0  0  0  0
 20 65  1  0  0  0  0
 21 22  1  0  0  0  0
 22 66  1  0  0  0  0
 22 67  1  0  0  0  0
 22 68  1  0  0  0  0
 23 69  1  0  0  0  0
 23 70  1  0  0  0  0
 23 71  1  0  0  0  0
 24 25  2  0  0  0  0
 24 26  2  0  0  0  0
 24 27  1  0  0  0  0
 27 28  1  0  0  0  0
 27 72  1  0  0  0  0
 28 29  1  0  0  0  0
 28 33  1  0  0  0  0
 28 73  1  0  0  0  0
 29 30  1  0  0  0  0
 29 74  1  0  0  0  0
 29 75  1  0  0  0  0
 30 31  1  0  0  0  0
 30 76  1  0  0  0  0
 30 77  1  0  0  0  0
 31 32  1  0  0  0  0
 31 78  1  0  0  0  0
 31 79  1  0  0  0  0
 32 33  1  0  0  0  0
 32 80  1  0  0  0  0
 32 81  1  0  0  0  0
 33 82  1  0  0  0  0
 33 83  1  0  0  0  0
 34 84  1  0  0  0  0
 34 85  1  0  0  0  0
 34 86  1  0  0  0  0
 35 36  2  0  0  0  0
 35 37  1  0  0  0  0
 37 38  2  0  0  0  0
 37 42  1  0  0  0  0
 38 39  1  0  0  0  0
 38 87  1  0  0  0  0
 39 40  2  0  0  0  0
 39 88  1  0  0  0  0
 40 41  1  0  0  0  0
 40 89  1  0  0  0  0
 41 42  2  0  0  0  0
 41 90  1  0  0  0  0
 42 43  1  0  0  0  0
 43 44  2  0  0  0  0
 45 91  1  0  0  0  0
 45 92  1  0  0  0  0
 45 93  1  0  0  0  0
 46 47  2  0  0  0  0
 46 48  2  0  0  0  0
 46 49  1  0  0  0  0
 49 50  1  0  0  0  0
 49 94  1  0  0  0  0
 50 51  1  0  0  0  0
 50 55  1  0  0  0  0
 50 95  1  0  0  0  0
 51 52  1  0  0  0  0
 51 96  1  0  0  0  0
 51 97  1  0  0  0  0
 52 53  1  0  0  0  0
 52 98  1  0  0  0  0
 52 99  1  0  0  0  0
 53 54  1  0  0  0  0
 53100  1  0  0  0  0
 53101  1  0  0  0  0
 54 55  1  0  0  0  0
 54102  1  0  0  0  0
 54103  1  0  0  0  0
 55104  1  0  0  0  0
 55105  1  0  0  0  0
 56106  1  0  0  0  0
 56107  1  0  0  0  0
 56108  1  0  0  0  0
M  END
