
 OpenBabel10072620023D

 38 39  0  0  0  0  0  0  0  0999 V2000
    4.7015   -1.7959   -1.9646 C   0  0  0  0  0  0  0  0  0  0  0  0
    4.4091   -3.0347   -1.1991 C   0  0  0  0  0  0  0  0  0  0  0  0
    4.9981   -4.2797   -1.2635 C   0  0  0  0  0  0  0  0  0  0  0  0
    4.3221   -5.0843   -0.3083 C   0  0  0  0  0  0  0  0  0  0  0  0
    3.3738   -4.3653    0.3253 N   0  0  0  0  0  0  0  0  0  0  0  0
    3.4200   -3.1461   -0.2561 N   0  0  0  0  0  0  0  0  0  0  0  0
    2.4241   -2.1654    0.1396 C   0  0  0  0  0  0  0  0  0  0  0  0
    1.0423   -2.5825   -0.3194 C   0  0  0  0  0  0  0  0  0  0  0  0
    0.3700   -1.9112   -1.1023 O   0  0  0  0  0  0  0  0  0  0  0  0
    0.5767   -3.7518    0.2603 N   0  0  0  0  0  0  0  0  0  0  0  0
   -0.5814   -4.3401   -0.2746 N   0  0  0  0  0  0  0  0  0  0  0  0
   -1.0094   -5.6058    0.1370 C   0  0  0  0  0  0  0  0  0  0  0  0
   -0.2028   -6.4883    1.3136 S   0  0  0  0  0  0  0  0  0  0  0  0
   -2.0942   -6.0085   -0.6334 N   0  0  0  0  0  0  0  0  0  0  0  0
   -2.9672   -7.1110   -0.5102 C   0  0  0  0  0  0  0  0  0  0  0  0
   -3.2331   -7.7770    0.6888 C   0  0  0  0  0  0  0  0  0  0  0  0
   -4.1229   -8.8566    0.7181 C   0  0  0  0  0  0  0  0  0  0  0  0
   -4.7593   -9.2585   -0.4480 C   0  0  0  0  0  0  0  0  0  0  0  0
   -4.5343   -8.5914   -1.6430 C   0  0  0  0  0  0  0  0  0  0  0  0
   -3.6473   -7.5125   -1.6707 C   0  0  0  0  0  0  0  0  0  0  0  0
   -5.6101  -10.2922   -0.4183 F   0  0  0  0  0  0  0  0  0  0  0  0
    4.5667   -6.5452   -0.0245 C   0  0  0  0  0  0  0  0  0  0  0  0
    5.7031   -6.9951   -0.6270 F   0  0  0  0  0  0  0  0  0  0  0  0
    4.7068   -6.8087    1.3009 F   0  0  0  0  0  0  0  0  0  0  0  0
    3.5526   -7.3269   -0.4823 F   0  0  0  0  0  0  0  0  0  0  0  0
    5.4918   -1.9671   -2.7044 H   0  0  0  0  0  0  0  0  0  0  0  0
    5.0386   -0.9997   -1.2925 H   0  0  0  0  0  0  0  0  0  0  0  0
    3.8131   -1.4515   -2.5025 H   0  0  0  0  0  0  0  0  0  0  0  0
    5.8039   -4.5820   -1.9217 H   0  0  0  0  0  0  0  0  0  0  0  0
    2.6803   -1.1944   -0.2927 H   0  0  0  0  0  0  0  0  0  0  0  0
    2.4482   -2.0807    1.2314 H   0  0  0  0  0  0  0  0  0  0  0  0
    1.2678   -4.4082    0.6473 H   0  0  0  0  0  0  0  0  0  0  0  0
   -1.1740   -3.7215   -0.8265 H   0  0  0  0  0  0  0  0  0  0  0  0
   -2.1328   -5.5415   -1.5308 H   0  0  0  0  0  0  0  0  0  0  0  0
   -2.7931   -7.4604    1.6279 H   0  0  0  0  0  0  0  0  0  0  0  0
   -4.3274   -9.3762    1.6486 H   0  0  0  0  0  0  0  0  0  0  0  0
   -5.0479   -8.9144   -2.5427 H   0  0  0  0  0  0  0  0  0  0  0  0
   -3.4815   -7.0030   -2.6167 H   0  0  0  0  0  0  0  0  0  0  0  0
  1  2  1  0  0  0  0
  1 26  1  0  0  0  0
  1 27  1  0  0  0  0
  1 28  1  0  0  0  0
  2  3  2  0  0  0  0
  2  6  1  0  0  0  0
  3  4  1  0  0  0  0
  3 29  1  0  0  0  0
  4  5  2  0  0  0  0
  4 22  1  0  0  0  0
  5  6  1  0  0  0  0
  6  7  1  0  0  0  0
  7  8  1  0  0  0  0
  7 30  1  0  0  0  0
  7 31  1  0  0  0  0
  8  9  2  0  0  0  0
  8 10  1  0  0  0  0
 10 11  1  0  0  0  0
 10 32  1  0  0  0  0
 11 12  1  0  0  0  0
 11 33  1  0  0  0  0
 12 13  2  0  0  0  0
 12 14  1  0  0  0  0
 14 15  1  0  0  0  0
 14 34  1  0  0  0  0
 15 16  2  0  0  0  0
 15 20  1  0  0  0  0
 16 17  1  0  0  0  0
 16 35  1  0  0  0  0
 17 18  2  0  0  0  0
 17 36  1  0  0  0  0
 18 19  1  0  0  0  0
 18 21  1  0  0  0  0
 19 20  2  0  0  0  0
 19 37  1  0  0  0  0
 20 38  1  0  0  0  0
 22 23  1  0  0  0  0
 22 24  1  0  0  0  0
 22 25  1  0  0  0  0
M  END
