
 OpenBabel10072619563D

 32 33  0  0  0  0  0  0  0  0999 V2000
    0.6348    0.6819   -0.1742 C   0  0  0  0  0  0  0  0  0  0  0  0
    1.9629    0.7072    0.1974 C   0  0  0  0  0  0  0  0  0  0  0  0
    2.4906   -0.8191    0.7446 S   0  0  0  0  0  0  0  0  0  0  0  0
    0.9546   -1.5400    0.4716 C   0  0  0  0  0  0  0  0  0  0  0  0
    0.0403   -0.6126   -0.0000 C   0  0  0  0  0  0  0  0  0  0  0  0
   -1.3416   -0.8895   -0.3020 N   0  3  0  0  0  0  0  0  0  0  0  0
   -1.8467   -0.2187   -1.2109 O   0  0  0  0  0  0  0  0  0  0  0  0
   -1.9244   -1.7374    0.3810 O   0  5  0  0  0  0  0  0  0  0  0  0
    0.7460   -3.2579    0.8087 S   0  0  0  0  0  0  0  0  0  0  0  0
    0.8618   -3.9655   -1.1203 S   0  0  0  0  0  0  0  0  0  0  0  0
    0.6792   -5.6859   -0.7752 C   0  0  0  0  0  0  0  0  0  0  0  0
    1.6004   -6.5916   -0.2749 C   0  0  0  0  0  0  0  0  0  0  0  0
    1.0221   -7.8940   -0.0950 C   0  0  0  0  0  0  0  0  0  0  0  0
   -0.2954   -7.9473   -0.4993 C   0  0  0  0  0  0  0  0  0  0  0  0
   -0.8385   -6.4384   -1.0744 S   0  0  0  0  0  0  0  0  0  0  0  0
   -1.4795   -9.2598   -0.5339 S   0  0  0  0  0  0  0  0  0  0  0  0
   -2.4921   -8.9284    0.4384 O   0  0  0  0  0  0  0  0  0  0  0  0
   -1.7564   -9.5273   -1.9231 O   0  0  0  0  0  0  0  0  0  0  0  0
   -0.6995  -10.6290    0.0523 N   0  0  0  0  0  0  0  0  0  0  0  0
    2.9741   -6.2918    0.0495 N   0  3  0  0  0  0  0  0  0  0  0  0
    3.5509   -5.4218   -0.6116 O   0  0  0  0  0  0  0  0  0  0  0  0
    3.4837   -6.9717    0.9494 O   0  5  0  0  0  0  0  0  0  0  0  0
    3.1765    1.9961    0.1904 S   0  0  0  0  0  0  0  0  0  0  0  0
    2.5955    3.0614   -0.5936 O   0  0  0  0  0  0  0  0  0  0  0  0
    3.5969    2.1698    1.5584 O   0  0  0  0  0  0  0  0  0  0  0  0
    4.5100    1.4501   -0.6697 N   0  0  0  0  0  0  0  0  0  0  0  0
    0.1136    1.5567   -0.5518 H   0  0  0  0  0  0  0  0  0  0  0  0
    1.5501   -8.7553    0.3016 H   0  0  0  0  0  0  0  0  0  0  0  0
   -1.2129  -10.9786    0.8645 H   0  0  0  0  0  0  0  0  0  0  0  0
   -0.6523  -11.3251   -0.6949 H   0  0  0  0  0  0  0  0  0  0  0  0
    4.6948    2.0842   -1.4484 H   0  0  0  0  0  0  0  0  0  0  0  0
    5.3111    1.3651   -0.0411 H   0  0  0  0  0  0  0  0  0  0  0  0
  1  2  2  0  0  0  0
  1  5  1  0  0  0  0
  1 27  1  0  0  0  0
  2  3  1  0  0  0  0
  2 23  1  0  0  0  0
  3  4  1  0  0  0  0
  4  5  2  0  0  0  0
  4  9  1  0  0  0  0
  5  6  1  0  0  0  0
  6  7  2  0  0  0  0
  6  8  1  0  0  0  0
  9 10  1  0  0  0  0
 10 11  1  0  0  0  0
 11 12  2  0  0  0  0
 11 15  1  0  0  0  0
 12 13  1  0  0  0  0
 12 20  1  0  0  0  0
 13 14  2  0  0  0  0
 13 28  1  0  0  0  0
 14 15  1  0  0  0  0
 14 16  1  0  0  0  0
 16 17  2  0  0  0  0
 16 18  2  0  0  0  0
 16 19  1  0  0  0  0
 19 29  1  0  0  0  0
 19 30  1  0  0  0  0
 20 21  2  0  0  0  0
 20 22  1  0  0  0  0
 23 24  2  0  0  0  0
 23 25  2  0  0  0  0
 23 26  1  0  0  0  0
 26 31  1  0  0  0  0
 26 32  1  0  0  0  0
M  CHG  4   6   1   8  -1  20   1  22  -1
M  END
