
 OpenBabel10072620063D

 44 46  0  0  0  0  0  0  0  0999 V2000
    5.8793   -1.1544   -1.1114 C   0  0  0  0  0  0  0  0  0  0  0  0
    5.4074    0.2657   -0.8579 C   0  0  0  0  0  0  0  0  0  0  0  0
    5.6697    0.6244    0.5058 O   0  0  0  0  0  0  0  0  0  0  0  0
    4.7124    0.2961    1.4040 C   0  0  0  0  0  0  0  0  0  0  0  0
    3.6500   -0.2461    1.1398 O   0  0  0  0  0  0  0  0  0  0  0  0
    5.1648    0.6081    2.7596 C   0  0  0  0  0  0  0  0  0  0  0  0
    4.7229    0.0902    3.9177 C   0  0  0  0  0  0  0  0  0  0  0  0
    5.4055    0.5301    5.0587 O   0  0  0  0  0  0  0  0  0  0  0  0
    6.3740    1.3926    4.6139 C   0  0  0  0  0  0  0  0  0  0  0  0
    7.2960    2.0270    5.3506 C   0  0  0  0  0  0  0  0  0  0  0  0
    7.4761    1.9211    6.8058 C   0  0  0  0  0  0  0  0  0  0  0  0
    7.2748    0.7290    7.5136 C   0  0  0  0  0  0  0  0  0  0  0  0
    7.4834    0.6875    8.8940 C   0  0  0  0  0  0  0  0  0  0  0  0
    7.9222    1.8167    9.5816 C   0  0  0  0  0  0  0  0  0  0  0  0
    8.1600    2.9977    8.8822 C   0  0  0  0  0  0  0  0  0  0  0  0
    7.9383    3.0476    7.5031 C   0  0  0  0  0  0  0  0  0  0  0  0
    7.1967   -0.7748    9.7559 Cl  0  0  0  0  0  0  0  0  0  0  0  0
    6.2536    1.5278    3.1445 C   0  0  0  0  0  0  0  0  0  0  0  0
    6.9064    2.2649    2.4332 O   0  0  0  0  0  0  0  0  0  0  0  0
    3.6704   -0.8782    4.1342 C   0  0  0  0  0  0  0  0  0  0  0  0
    3.2783   -1.3217    5.3412 C   0  0  0  0  0  0  0  0  0  0  0  0
    2.1963   -2.2947    5.5739 C   0  0  0  0  0  0  0  0  0  0  0  0
    1.8165   -3.2549    4.6263 C   0  0  0  0  0  0  0  0  0  0  0  0
    0.8062   -4.1723    4.9205 C   0  0  0  0  0  0  0  0  0  0  0  0
    0.1694   -4.1565    6.1586 C   0  0  0  0  0  0  0  0  0  0  0  0
    0.5456   -3.2140    7.1123 C   0  0  0  0  0  0  0  0  0  0  0  0
    1.5543   -2.2919    6.8219 C   0  0  0  0  0  0  0  0  0  0  0  0
    0.3503   -5.3429    3.7445 Cl  0  0  0  0  0  0  0  0  0  0  0  0
    5.7398   -1.4344   -2.1591 H   0  0  0  0  0  0  0  0  0  0  0  0
    5.3305   -1.8656   -0.4859 H   0  0  0  0  0  0  0  0  0  0  0  0
    6.9380   -1.2608   -0.8531 H   0  0  0  0  0  0  0  0  0  0  0  0
    4.3467    0.3836   -1.1070 H   0  0  0  0  0  0  0  0  0  0  0  0
    5.9685    0.9660   -1.4843 H   0  0  0  0  0  0  0  0  0  0  0  0
    7.9832    2.7039    4.8440 H   0  0  0  0  0  0  0  0  0  0  0  0
    6.9632   -0.1761    6.9991 H   0  0  0  0  0  0  0  0  0  0  0  0
    8.0846    1.7811   10.6556 H   0  0  0  0  0  0  0  0  0  0  0  0
    8.5155    3.8804    9.4088 H   0  0  0  0  0  0  0  0  0  0  0  0
    8.1254    3.9831    6.9782 H   0  0  0  0  0  0  0  0  0  0  0  0
    3.1647   -1.2450    3.2437 H   0  0  0  0  0  0  0  0  0  0  0  0
    3.7568   -0.9415    6.2425 H   0  0  0  0  0  0  0  0  0  0  0  0
    2.3072   -3.3067    3.6582 H   0  0  0  0  0  0  0  0  0  0  0  0
   -0.6136   -4.8745    6.3861 H   0  0  0  0  0  0  0  0  0  0  0  0
    0.0578   -3.1960    8.0833 H   0  0  0  0  0  0  0  0  0  0  0  0
    1.8315   -1.5644    7.5830 H   0  0  0  0  0  0  0  0  0  0  0  0
  1  2  1  0  0  0  0
  1 29  1  0  0  0  0
  1 30  1  0  0  0  0
  1 31  1  0  0  0  0
  2  3  1  0  0  0  0
  2 32  1  0  0  0  0
  2 33  1  0  0  0  0
  3  4  1  0  0  0  0
  4  5  2  0  0  0  0
  4  6  1  0  0  0  0
  6  7  2  0  0  0  0
  6 18  1  0  0  0  0
  7  8  1  0  0  0  0
  7 20  1  0  0  0  0
  8  9  1  0  0  0  0
  9 10  2  0  0  0  0
  9 18  1  0  0  0  0
 10 11  1  0  0  0  0
 10 34  1  0  0  0  0
 11 12  2  0  0  0  0
 11 16  1  0  0  0  0
 12 13  1  0  0  0  0
 12 35  1  0  0  0  0
 13 14  2  0  0  0  0
 13 17  1  0  0  0  0
 14 15  1  0  0  0  0
 14 36  1  0  0  0  0
 15 16  2  0  0  0  0
 15 37  1  0  0  0  0
 16 38  1  0  0  0  0
 18 19  2  0  0  0  0
 20 21  2  0  0  0  0
 20 39  1  0  0  0  0
 21 22  1  0  0  0  0
 21 40  1  0  0  0  0
 22 23  2  0  0  0  0
 22 27  1  0  0  0  0
 23 24  1  0  0  0  0
 23 41  1  0  0  0  0
 24 25  2  0  0  0  0
 24 28  1  0  0  0  0
 25 26  1  0  0  0  0
 25 42  1  0  0  0  0
 26 27  2  0  0  0  0
 26 43  1  0  0  0  0
 27 44  1  0  0  0  0
M  END
