
 OpenBabel10072619573D

 37 38  0  0  0  0  0  0  0  0999 V2000
    1.2861    0.4330   -0.0463 C   0  0  0  0  0  0  0  0  0  0  0  0
    2.7037   -0.1162   -0.1143 C   0  0  0  0  0  0  0  0  0  0  0  0
    3.0105   -0.7278   -1.4483 C   0  0  0  0  0  0  0  0  0  0  0  0
    2.9830   -2.0267   -1.8183 C   0  0  0  0  0  0  0  0  0  0  0  0
    3.3867   -2.2514   -3.1477 N   0  0  0  0  0  0  0  0  0  0  0  0
    3.6975   -1.0981   -3.8683 C   0  0  0  0  0  0  0  0  0  0  0  0
    4.0336   -1.0700   -5.1127 N   0  0  0  0  0  0  0  0  0  0  0  0
    4.3863    0.3101   -5.8641 S   0  0  0  0  0  0  0  0  0  0  0  0
    3.1895    1.1180   -5.9905 O   0  0  0  0  0  0  0  0  0  0  0  0
    5.6254    0.8625   -5.3560 O   0  0  0  0  0  0  0  0  0  0  0  0
    4.7791   -0.2622   -7.5138 C   0  0  0  0  0  0  0  0  0  0  0  0
    4.0881    0.2441   -8.6199 C   0  0  0  0  0  0  0  0  0  0  0  0
    4.3969   -0.2206   -9.9001 C   0  0  0  0  0  0  0  0  0  0  0  0
    5.3854   -1.1930  -10.0729 C   0  0  0  0  0  0  0  0  0  0  0  0
    6.0676   -1.6965   -8.9550 C   0  0  0  0  0  0  0  0  0  0  0  0
    5.7750   -1.2329   -7.6675 C   0  0  0  0  0  0  0  0  0  0  0  0
    7.0905   -2.7334   -9.1352 N   0  3  0  0  0  0  0  0  0  0  0  0
    7.4506   -2.9920  -10.2922 O   0  0  0  0  0  0  0  0  0  0  0  0
    7.5231   -3.2965   -8.1199 O   0  5  0  0  0  0  0  0  0  0  0  0
    3.5414    0.2952   -2.7723 S   0  0  0  0  0  0  0  0  0  0  0  0
    3.3743   -3.5469   -3.8100 C   0  0  0  0  0  0  0  0  0  0  0  0
    2.5614   -3.1681   -0.9435 C   0  0  0  0  0  0  0  0  0  0  0  0
    1.0793    0.8156    0.9583 H   0  0  0  0  0  0  0  0  0  0  0  0
    0.5495   -0.3453   -0.2724 H   0  0  0  0  0  0  0  0  0  0  0  0
    1.1411    1.2573   -0.7524 H   0  0  0  0  0  0  0  0  0  0  0  0
    2.8411   -0.8503    0.6872 H   0  0  0  0  0  0  0  0  0  0  0  0
    3.4187    0.6877    0.1022 H   0  0  0  0  0  0  0  0  0  0  0  0
    3.3099    0.9952   -8.4942 H   0  0  0  0  0  0  0  0  0  0  0  0
    3.8635    0.1711  -10.7643 H   0  0  0  0  0  0  0  0  0  0  0  0
    5.6098   -1.5473  -11.0779 H   0  0  0  0  0  0  0  0  0  0  0  0
    6.3046   -1.6115   -6.7954 H   0  0  0  0  0  0  0  0  0  0  0  0
    3.5144   -4.3719   -3.1041 H   0  0  0  0  0  0  0  0  0  0  0  0
    4.1855   -3.6260   -4.5431 H   0  0  0  0  0  0  0  0  0  0  0  0
    2.4211   -3.6927   -4.3291 H   0  0  0  0  0  0  0  0  0  0  0  0
    2.1409   -2.8370    0.0098 H   0  0  0  0  0  0  0  0  0  0  0  0
    3.4191   -3.8124   -0.7252 H   0  0  0  0  0  0  0  0  0  0  0  0
    1.7893   -3.7679   -1.4377 H   0  0  0  0  0  0  0  0  0  0  0  0
  1  2  1  0  0  0  0
  1 23  1  0  0  0  0
  1 24  1  0  0  0  0
  1 25  1  0  0  0  0
  2  3  1  0  0  0  0
  2 26  1  0  0  0  0
  2 27  1  0  0  0  0
  3  4  2  0  0  0  0
  3 20  1  0  0  0  0
  4  5  1  0  0  0  0
  4 22  1  0  0  0  0
  5  6  1  0  0  0  0
  5 21  1  0  0  0  0
  6  7  2  0  0  0  0
  6 20  1  0  0  0  0
  7  8  1  0  0  0  0
  8  9  2  0  0  0  0
  8 10  2  0  0  0  0
  8 11  1  0  0  0  0
 11 12  2  0  0  0  0
 11 16  1  0  0  0  0
 12 13  1  0  0  0  0
 12 28  1  0  0  0  0
 13 14  2  0  0  0  0
 13 29  1  0  0  0  0
 14 15  1  0  0  0  0
 14 30  1  0  0  0  0
 15 16  2  0  0  0  0
 15 17  1  0  0  0  0
 16 31  1  0  0  0  0
 17 18  2  0  0  0  0
 17 19  1  0  0  0  0
 21 32  1  0  0  0  0
 21 33  1  0  0  0  0
 21 34  1  0  0  0  0
 22 35  1  0  0  0  0
 22 36  1  0  0  0  0
 22 37  1  0  0  0  0
M  CHG  2  17   1  19  -1
M  END
