
 OpenBabel10072619443D

189196  0  0  1  0  0  0  0  0999 V2000
    1.5630    2.6020   -1.5463 C   0  0  0  0  0  0  0  0  0  0  0  0
    2.9097    2.1592   -1.7219 O   0  0  0  0  0  0  0  0  0  0  0  0
    3.0464    0.7280   -1.7464 C   0  0  0  0  0  0  0  0  0  0  0  0
    4.5361    0.2579   -1.1630 C   0  0  3  0  0  0  0  0  0  0  0  0
    4.5149   -1.5747   -0.8199 C   0  0  3  0  0  0  0  0  0  0  0  0
    3.7894   -1.0689    0.3010 C   0  0  3  0  0  0  0  0  0  0  0  0
    4.7370   -0.1169    1.4236 C   0  0  3  0  0  0  0  0  0  0  0  0
    4.1208    1.1876    1.1932 C   0  0  3  0  0  0  0  0  0  0  0  0
    4.8134    1.3788   -0.0962 O   0  0  0  0  0  0  0  0  0  0  0  0
    4.2636    2.0102    2.3858 O   0  0  0  0  0  0  0  0  0  0  0  0
    3.6494    1.5532    3.7120 C   0  0  3  0  0  0  0  0  0  0  0  0
    4.0347    0.1827    4.2780 C   0  0  3  0  0  0  0  0  0  0  0  0
    3.0406   -0.8018    3.8942 O   0  0  0  0  0  0  0  0  0  0  0  0
    2.0613   -0.8196    2.9260 C   0  0  3  0  0  0  0  0  0  0  0  0
    1.3050    0.5214    2.9347 C   0  0  3  0  0  0  0  0  0  0  0  0
    2.1067    1.6026    3.7582 C   0  0  3  0  0  0  0  0  0  0  0  0
    1.7203    2.9281    3.3819 O   0  0  0  0  0  0  0  0  0  0  0  0
   -0.0261    0.3034    3.3822 O   0  0  0  0  0  0  0  0  0  0  0  0
   -0.8833    1.3707    3.0078 C   0  0  0  0  0  0  0  0  0  0  0  0
    1.5170   -2.1794    2.7675 O   0  0  0  0  0  0  0  0  0  0  0  0
    2.5827   -3.2254    2.8983 C   0  0  3  0  0  0  0  0  0  0  0  0
    2.4145   -4.9787    2.1923 C   0  0  3  0  0  0  0  0  0  0  0  0
    4.1969   -5.7874    2.1538 O   0  0  0  0  0  0  0  0  0  0  0  0
    5.7938   -4.9131    1.8497 C   0  0  3  0  0  0  0  0  0  0  0  0
    5.8930   -3.1569    2.1333 C   0  0  3  0  0  0  0  0  0  0  0  0
    4.3655   -2.5799    2.6253 C   0  0  3  0  0  0  0  0  0  0  0  0
    4.8592   -1.9618    3.7359 O   0  0  0  0  0  0  0  0  0  0  0  0
    6.7521   -2.6056    0.9771 O   0  0  0  0  0  0  0  0  0  0  0  0
    7.3310   -1.4530    0.3531 C   0  0  0  0  0  0  0  0  0  0  0  0
    6.0316   -4.8822    0.4692 O   0  0  0  0  0  0  0  0  0  0  0  0
    7.0669   -5.4749   -0.1871 C   0  0  3  0  0  0  0  0  0  0  0  0
    7.1019   -6.8313    0.3650 C   0  0  3  0  0  0  0  0  0  0  0  0
    7.8039   -6.7086    1.5851 O   0  0  0  0  0  0  0  0  0  0  0  0
    8.9487   -5.9376    1.8882 C   0  0  3  0  0  0  0  0  0  0  0  0
    8.8440   -4.5184    1.3177 C   0  0  3  0  0  0  0  0  0  0  0  0
    8.4333   -4.7536   -0.1446 C   0  0  3  0  0  0  0  0  0  0  0  0
    8.1865   -3.6251   -0.9550 O   0  0  0  0  0  0  0  0  0  0  0  0
    9.9817   -3.6992    1.6262 O   0  0  0  0  0  0  0  0  0  0  0  0
    9.9965   -3.3378    3.0213 C   0  0  0  0  0  0  0  0  0  0  0  0
   10.1837   -6.5737    1.5564 O   0  0  0  0  0  0  0  0  0  0  0  0
   10.3943   -7.9815    1.8874 C   0  0  3  0  0  0  0  0  0  0  0  0
    9.1562   -8.8356    1.7166 C   0  0  3  0  0  0  0  0  0  0  0  0
    8.2275   -8.5018    2.7123 O   0  0  0  0  0  0  0  0  0  0  0  0
    8.5674   -8.4509    4.0493 C   0  0  3  0  0  0  0  0  0  0  0  0
    9.9700   -7.8746    4.3659 C   0  0  3  0  0  0  0  0  0  0  0  0
   10.9690   -8.2368    3.2758 C   0  0  3  0  0  0  0  0  0  0  0  0
   12.1874   -7.4947    3.4173 O   0  0  0  0  0  0  0  0  0  0  0  0
   10.4426   -8.2449    5.6676 O   0  0  0  0  0  0  0  0  0  0  0  0
    9.7638   -7.5483    6.7047 C   0  0  0  0  0  0  0  0  0  0  0  0
    8.2507   -9.7303    4.5588 O   0  0  0  0  0  0  0  0  0  0  0  0
    6.8355  -10.1210    4.4765 C   0  0  3  0  0  0  0  0  0  0  0  0
    5.9484   -9.7017    3.2647 C   0  0  3  0  0  0  0  0  0  0  0  0
    5.7863   -8.2807    3.2950 O   0  0  0  0  0  0  0  0  0  0  0  0
    5.0845   -7.8323    4.4108 C   0  0  3  0  0  0  0  0  0  0  0  0
    5.7649   -8.2070    5.7698 C   0  0  3  0  0  0  0  0  0  0  0  0
    6.1685   -9.6818    5.7970 C   0  0  3  0  0  0  0  0  0  0  0  0
    7.1052   -9.9476    6.8555 O   0  0  0  0  0  0  0  0  0  0  0  0
    5.0378   -7.7773    6.9393 O   0  0  0  0  0  0  0  0  0  0  0  0
    5.8944   -7.6450    8.0874 C   0  0  0  0  0  0  0  0  0  0  0  0
    3.7482   -8.2178    4.1479 O   0  0  0  0  0  0  0  0  0  0  0  0
    3.0816   -7.3343    3.1651 C   0  0  3  0  0  0  0  0  0  0  0  0
    3.4158   -7.3426    1.3073 C   0  0  3  0  0  0  0  0  0  0  0  0
    3.7365   -5.8105    0.3601 O   0  0  0  0  0  0  0  0  0  0  0  0
    3.9913   -4.1954    1.2535 C   0  0  3  0  0  0  0  0  0  0  0  0
    4.7802   -3.0504    0.0672 O   0  0  0  0  0  0  0  0  0  0  0  0
    4.1654   -4.5804    3.3979 C   0  0  3  0  0  0  0  0  0  0  0  0
    3.0321   -5.9614    4.0736 C   0  0  3  0  0  0  0  0  0  0  0  0
    2.9090   -6.2336    5.4856 O   0  0  0  0  0  0  0  0  0  0  0  0
    4.2470   -3.7660    4.6257 O   0  0  0  0  0  0  0  0  0  0  0  0
    4.4008   -4.3465    5.9193 C   0  0  0  0  0  0  0  0  0  0  0  0
    2.2604   -7.8157    0.4470 C   0  0  0  0  0  0  0  0  0  0  0  0
    1.7526   -9.1285    0.3942 O   0  0  0  0  0  0  0  0  0  0  0  0
    0.6912   -9.1210   -0.5741 C   0  0  0  0  0  0  0  0  0  0  0  0
    4.6580  -10.5692    3.2758 C   0  0  0  0  0  0  0  0  0  0  0  0
    3.7429  -10.3169    2.2120 O   0  0  0  0  0  0  0  0  0  0  0  0
    2.5454  -11.0666    2.4399 C   0  0  0  0  0  0  0  0  0  0  0  0
    9.1008  -10.3361    1.5067 C   0  0  0  0  0  0  0  0  0  0  0  0
    9.5883  -10.8348    0.2705 O   0  0  0  0  0  0  0  0  0  0  0  0
   10.7876  -10.2523   -0.1774 C   0  0  0  0  0  0  0  0  0  0  0  0
    7.4999   -7.5659   -0.8887 C   0  0  0  0  0  0  0  0  0  0  0  0
    7.6224   -8.9631   -0.8843 O   0  0  0  0  0  0  0  0  0  0  0  0
    8.2815   -9.2830   -2.1077 C   0  0  0  0  0  0  0  0  0  0  0  0
    1.1779   -4.8976    1.2072 C   0  0  0  0  0  0  0  0  0  0  0  0
    1.4392   -5.0195   -0.1489 O   0  0  0  0  0  0  0  0  0  0  0  0
    0.3672   -4.4693   -0.8635 C   0  0  0  0  0  0  0  0  0  0  0  0
    4.2910   -0.2209    5.7656 C   0  0  0  0  0  0  0  0  0  0  0  0
    5.1246   -1.3995    6.0674 O   0  0  0  0  0  0  0  0  0  0  0  0
    6.4356   -1.6054    5.5038 C   0  0  0  0  0  0  0  0  0  0  0  0
    6.1585    0.1156    1.4700 O   0  0  0  0  0  0  0  0  0  0  0  0
    6.8406    0.9182    2.4621 C   0  0  0  0  0  0  0  0  0  0  0  0
    2.6925   -1.9868    0.3934 O   0  0  0  0  0  0  0  0  0  0  0  0
    1.5534    3.6963   -1.5484 H   0  0  0  0  0  0  0  0  0  0  0  0
    1.1511    2.2690   -0.5844 H   0  0  0  0  0  0  0  0  0  0  0  0
    0.9307    2.2463   -2.3635 H   0  0  0  0  0  0  0  0  0  0  0  0
    2.8791    0.3513   -2.7555 H   0  0  0  0  0  0  0  0  0  0  0  0
    2.1987    0.3407   -1.1647 H   0  0  0  0  0  0  0  0  0  0  0  0
    5.2453    0.4548   -1.9739 H   0  0  0  0  0  0  0  0  0  0  0  0
    4.0396   -1.9755   -1.7199 H   0  0  0  0  0  0  0  0  0  0  0  0
    3.0609   -0.3433    0.1109 H   0  0  0  0  0  0  0  0  0  0  0  0
    4.6131   -0.4524    2.3774 H   0  0  0  0  0  0  0  0  0  0  0  0
    3.0635    1.2321    0.9912 H   0  0  0  0  0  0  0  0  0  0  0  0
    4.0744    2.3012    4.3928 H   0  0  0  0  0  0  0  0  0  0  0  0
    5.0507    0.0530    3.9324 H   0  0  0  0  0  0  0  0  0  0  0  0
    2.3850   -0.7078    1.9208 H   0  0  0  0  0  0  0  0  0  0  0  0
    1.2458    0.9032    1.9063 H   0  0  0  0  0  0  0  0  0  0  0  0
    1.8229    1.4593    4.8085 H   0  0  0  0  0  0  0  0  0  0  0  0
    2.4279    3.2754    2.8032 H   0  0  0  0  0  0  0  0  0  0  0  0
   -1.9124    1.0314    3.1287 H   0  0  0  0  0  0  0  0  0  0  0  0
   -0.7363    1.6561    1.9591 H   0  0  0  0  0  0  0  0  0  0  0  0
   -0.7066    2.2248    3.6627 H   0  0  0  0  0  0  0  0  0  0  0  0
    2.4049   -3.4028    3.9630 H   0  0  0  0  0  0  0  0  0  0  0  0
    1.7777   -5.7443    2.6131 H   0  0  0  0  0  0  0  0  0  0  0  0
    6.5212   -5.4008    2.5166 H   0  0  0  0  0  0  0  0  0  0  0  0
    6.5905   -2.9719    2.9560 H   0  0  0  0  0  0  0  0  0  0  0  0
    4.0310   -1.9121    1.9498 H   0  0  0  0  0  0  0  0  0  0  0  0
    4.2315   -2.2212    4.4373 H   0  0  0  0  0  0  0  0  0  0  0  0
    8.1904   -1.7338   -0.2571 H   0  0  0  0  0  0  0  0  0  0  0  0
    7.8901   -0.7400    0.9498 H   0  0  0  0  0  0  0  0  0  0  0  0
    6.7127   -1.0266   -0.4542 H   0  0  0  0  0  0  0  0  0  0  0  0
    6.6976   -5.4332   -1.2170 H   0  0  0  0  0  0  0  0  0  0  0  0
    6.1120   -7.1859    0.6580 H   0  0  0  0  0  0  0  0  0  0  0  0
    8.9396   -5.7935    2.9713 H   0  0  0  0  0  0  0  0  0  0  0  0
    8.0332   -4.0093    1.8039 H   0  0  0  0  0  0  0  0  0  0  0  0
    9.2317   -5.2933   -0.6527 H   0  0  0  0  0  0  0  0  0  0  0  0
    7.2885   -3.3534   -0.6404 H   0  0  0  0  0  0  0  0  0  0  0  0
   10.6384   -2.4658    3.1699 H   0  0  0  0  0  0  0  0  0  0  0  0
   10.3909   -4.1618    3.6258 H   0  0  0  0  0  0  0  0  0  0  0  0
    8.9969   -3.0777    3.3938 H   0  0  0  0  0  0  0  0  0  0  0  0
   11.1693   -8.2386    1.1741 H   0  0  0  0  0  0  0  0  0  0  0  0
    8.7782   -8.4639    0.7915 H   0  0  0  0  0  0  0  0  0  0  0  0
    7.9141   -7.7057    4.4889 H   0  0  0  0  0  0  0  0  0  0  0  0
    9.9295   -6.7785    4.3635 H   0  0  0  0  0  0  0  0  0  0  0  0
   11.2284   -9.2966    3.3685 H   0  0  0  0  0  0  0  0  0  0  0  0
   12.0458   -6.6229    3.0041 H   0  0  0  0  0  0  0  0  0  0  0  0
   10.2028   -7.8314    7.6624 H   0  0  0  0  0  0  0  0  0  0  0  0
    8.7106   -7.8238    6.7177 H   0  0  0  0  0  0  0  0  0  0  0  0
    9.8543   -6.4644    6.5781 H   0  0  0  0  0  0  0  0  0  0  0  0
    6.8919  -11.2125    4.4764 H   0  0  0  0  0  0  0  0  0  0  0  0
    6.4066   -9.8813    2.2974 H   0  0  0  0  0  0  0  0  0  0  0  0
    5.1735   -6.7588    4.4380 H   0  0  0  0  0  0  0  0  0  0  0  0
    6.6696   -7.6004    5.8088 H   0  0  0  0  0  0  0  0  0  0  0  0
    5.2744  -10.2719    6.0144 H   0  0  0  0  0  0  0  0  0  0  0  0
    7.9912   -9.9478    6.4344 H   0  0  0  0  0  0  0  0  0  0  0  0
    5.3755   -7.0830    8.8679 H   0  0  0  0  0  0  0  0  0  0  0  0
    6.8132   -7.0938    7.8495 H   0  0  0  0  0  0  0  0  0  0  0  0
    6.1488   -8.6250    8.4961 H   0  0  0  0  0  0  0  0  0  0  0  0
    2.0820   -7.7634    3.1832 H   0  0  0  0  0  0  0  0  0  0  0  0
    4.3078   -7.9601    1.1459 H   0  0  0  0  0  0  0  0  0  0  0  0
    3.0539   -3.8228    0.9053 H   0  0  0  0  0  0  0  0  0  0  0  0
    5.1191   -5.0649    3.6575 H   0  0  0  0  0  0  0  0  0  0  0  0
    2.0437   -5.4984    4.1405 H   0  0  0  0  0  0  0  0  0  0  0  0
    3.0360   -7.1740    5.6651 H   0  0  0  0  0  0  0  0  0  0  0  0
    5.2072   -3.8710    6.4689 H   0  0  0  0  0  0  0  0  0  0  0  0
    4.6774   -5.3967    5.9447 H   0  0  0  0  0  0  0  0  0  0  0  0
    3.4715   -4.1472    6.4586 H   0  0  0  0  0  0  0  0  0  0  0  0
    2.5066   -7.5220   -0.5761 H   0  0  0  0  0  0  0  0  0  0  0  0
    1.4189   -7.2561    0.8015 H   0  0  0  0  0  0  0  0  0  0  0  0
    0.0597  -10.0012   -0.4528 H   0  0  0  0  0  0  0  0  0  0  0  0
    1.1206   -9.1039   -1.5806 H   0  0  0  0  0  0  0  0  0  0  0  0
    0.0562   -8.2327   -0.4515 H   0  0  0  0  0  0  0  0  0  0  0  0
    4.1160  -10.4735    4.2202 H   0  0  0  0  0  0  0  0  0  0  0  0
    4.9666  -11.6140    3.1845 H   0  0  0  0  0  0  0  0  0  0  0  0
    1.8703  -10.9997    1.5884 H   0  0  0  0  0  0  0  0  0  0  0  0
    2.0224  -10.6826    3.3228 H   0  0  0  0  0  0  0  0  0  0  0  0
    2.7842  -12.1245    2.5740 H   0  0  0  0  0  0  0  0  0  0  0  0
    8.0396  -10.6144    1.4852 H   0  0  0  0  0  0  0  0  0  0  0  0
    9.5193  -10.8831    2.3491 H   0  0  0  0  0  0  0  0  0  0  0  0
   11.1120  -10.7836   -1.0692 H   0  0  0  0  0  0  0  0  0  0  0  0
   11.5458  -10.3290    0.6020 H   0  0  0  0  0  0  0  0  0  0  0  0
   10.6245   -9.2111   -0.4718 H   0  0  0  0  0  0  0  0  0  0  0  0
    8.4382   -7.1252   -1.2279 H   0  0  0  0  0  0  0  0  0  0  0  0
    6.7131   -7.3640   -1.6309 H   0  0  0  0  0  0  0  0  0  0  0  0
    8.5216  -10.3401   -2.1199 H   0  0  0  0  0  0  0  0  0  0  0  0
    9.2144   -8.7076   -2.1892 H   0  0  0  0  0  0  0  0  0  0  0  0
    7.6353   -9.0183   -2.9492 H   0  0  0  0  0  0  0  0  0  0  0  0
    0.5639   -4.0331    1.5073 H   0  0  0  0  0  0  0  0  0  0  0  0
    0.4513   -5.6956    1.4237 H   0  0  0  0  0  0  0  0  0  0  0  0
    0.3964   -4.8640   -1.8718 H   0  0  0  0  0  0  0  0  0  0  0  0
    0.5424   -3.3959   -0.8385 H   0  0  0  0  0  0  0  0  0  0  0  0
   -0.5922   -4.7110   -0.3882 H   0  0  0  0  0  0  0  0  0  0  0  0
    3.3157   -0.5639    6.1364 H   0  0  0  0  0  0  0  0  0  0  0  0
    4.6688    0.5928    6.3627 H   0  0  0  0  0  0  0  0  0  0  0  0
    6.5455   -2.6745    5.2341 H   0  0  0  0  0  0  0  0  0  0  0  0
    7.2215   -1.4323    6.2326 H   0  0  0  0  0  0  0  0  0  0  0  0
    6.6422   -1.0412    4.5916 H   0  0  0  0  0  0  0  0  0  0  0  0
    7.6917    0.3528    2.8721 H   0  0  0  0  0  0  0  0  0  0  0  0
    6.2935    1.2714    3.3355 H   0  0  0  0  0  0  0  0  0  0  0  0
    7.2560    1.8029    1.9770 H   0  0  0  0  0  0  0  0  0  0  0  0
    2.8428   -2.6561   -0.3176 H   0  0  0  0  0  0  0  0  0  0  0  0
  1  2  1  0  0  0  0
  1 92  1  0  0  0  0
  1 93  1  0  0  0  0
  1 94  1  0  0  0  0
  2  3  1  0  0  0  0
  3  4  1  0  0  0  0
  3 95  1  0  0  0  0
  3 96  1  0  0  0  0
  4  5  1  0  0  0  0
  4  9  1  0  0  0  0
  4 97  1  0  0  0  0
  5  6  1  0  0  0  0
  5 65  1  0  0  0  0
  5 98  1  0  0  0  0
  6  7  1  0  0  0  0
  6 91  1  0  0  0  0
  6 99  1  0  0  0  0
  7  8  1  0  0  0  0
  7 89  1  0  0  0  0
  7100  1  0  0  0  0
  8  9  1  0  0  0  0
  8 10  1  0  0  0  0
  8101  1  0  0  0  0
 10 11  1  0  0  0  0
 11 12  1  0  0  0  0
 11 16  1  0  0  0  0
 11102  1  0  0  0  0
 12 13  1  0  0  0  0
 12 86  1  0  0  0  0
 12103  1  0  0  0  0
 13 14  1  0  0  0  0
 14 15  1  0  0  0  0
 14 20  1  0  0  0  0
 14104  1  0  0  0  0
 15 16  1  0  0  0  0
 15 18  1  0  0  0  0
 15105  1  0  0  0  0
 16 17  1  0  0  0  0
 16106  1  0  0  0  0
 17107  1  0  0  0  0
 18 19  1  0  0  0  0
 19108  1  0  0  0  0
 19109  1  0  0  0  0
 19110  1  0  0  0  0
 20 21  1  0  0  0  0
 21 22  1  0  0  0  0
 21 26  1  0  0  0  0
 21111  1  0  0  0  0
 22 23  1  0  0  0  0
 22 83  1  0  0  0  0
 22112  1  0  0  0  0
 23 24  1  0  0  0  0
 24 25  1  0  0  0  0
 24 30  1  0  0  0  0
 24113  1  0  0  0  0
 25 26  1  0  0  0  0
 25 28  1  0  0  0  0
 25114  1  0  0  0  0
 26 27  1  0  0  0  0
 26115  1  0  0  0  0
 27116  1  0  0  0  0
 28 29  1  0  0  0  0
 29117  1  0  0  0  0
 29118  1  0  0  0  0
 29119  1  0  0  0  0
 30 31  1  0  0  0  0
 31 32  1  0  0  0  0
 31 36  1  0  0  0  0
 31120  1  0  0  0  0
 32 33  1  0  0  0  0
 32 80  1  0  0  0  0
 32121  1  0  0  0  0
 33 34  1  0  0  0  0
 34 35  1  0  0  0  0
 34 40  1  0  0  0  0
 34122  1  0  0  0  0
 35 36  1  0  0  0  0
 35 38  1  0  0  0  0
 35123  1  0  0  0  0
 36 37  1  0  0  0  0
 36124  1  0  0  0  0
 37125  1  0  0  0  0
 38 39  1  0  0  0  0
 39126  1  0  0  0  0
 39127  1  0  0  0  0
 39128  1  0  0  0  0
 40 41  1  0  0  0  0
 41 42  1  0  0  0  0
 41 46  1  0  0  0  0
 41129  1  0  0  0  0
 42 43  1  0  0  0  0
 42 77  1  0  0  0  0
 42130  1  0  0  0  0
 43 44  1  0  0  0  0
 44 45  1  0  0  0  0
 44 50  1  0  0  0  0
 44131  1  0  0  0  0
 45 46  1  0  0  0  0
 45 48  1  0  0  0  0
 45132  1  0  0  0  0
 46 47  1  0  0  0  0
 46133  1  0  0  0  0
 47134  1  0  0  0  0
 48 49  1  0  0  0  0
 49135  1  0  0  0  0
 49136  1  0  0  0  0
 49137  1  0  0  0  0
 50 51  1  0  0  0  0
 51 52  1  0  0  0  0
 51 56  1  0  0  0  0
 51138  1  0  0  0  0
 52 53  1  0  0  0  0
 52 74  1  0  0  0  0
 52139  1  0  0  0  0
 53 54  1  0  0  0  0
 54 55  1  0  0  0  0
 54 60  1  0  0  0  0
 54140  1  0  0  0  0
 55 56  1  0  0  0  0
 55 58  1  0  0  0  0
 55141  1  0  0  0  0
 56 57  1  0  0  0  0
 56142  1  0  0  0  0
 57143  1  0  0  0  0
 58 59  1  0  0  0  0
 59144  1  0  0  0  0
 59145  1  0  0  0  0
 59146  1  0  0  0  0
 60 61  1  0  0  0  0
 61 62  1  0  0  0  0
 61 67  1  0  0  0  0
 61147  1  0  0  0  0
 62 63  1  0  0  0  0
 62 71  1  0  0  0  0
 62148  1  0  0  0  0
 63 64  1  0  0  0  0
 64 65  1  0  0  0  0
 64 66  1  0  0  0  0
 64149  1  0  0  0  0
 66 67  1  0  0  0  0
 66 69  1  0  0  0  0
 66150  1  0  0  0  0
 67 68  1  0  0  0  0
 67151  1  0  0  0  0
 68152  1  0  0  0  0
 69 70  1  0  0  0  0
 70153  1  0  0  0  0
 70154  1  0  0  0  0
 70155  1  0  0  0  0
 71 72  1  0  0  0  0
 71156  1  0  0  0  0
 71157  1  0  0  0  0
 72 73  1  0  0  0  0
 73158  1  0  0  0  0
 73159  1  0  0  0  0
 73160  1  0  0  0  0
 74 75  1  0  0  0  0
 74161  1  0  0  0  0
 74162  1  0  0  0  0
 75 76  1  0  0  0  0
 76163  1  0  0  0  0
 76164  1  0  0  0  0
 76165  1  0  0  0  0
 77 78  1  0  0  0  0
 77166  1  0  0  0  0
 77167  1  0  0  0  0
 78 79  1  0  0  0  0
 79168  1  0  0  0  0
 79169  1  0  0  0  0
 79170  1  0  0  0  0
 80 81  1  0  0  0  0
 80171  1  0  0  0  0
 80172  1  0  0  0  0
 81 82  1  0  0  0  0
 82173  1  0  0  0  0
 82174  1  0  0  0  0
 82175  1  0  0  0  0
 83 84  1  0  0  0  0
 83176  1  0  0  0  0
 83177  1  0  0  0  0
 84 85  1  0  0  0  0
 85178  1  0  0  0  0
 85179  1  0  0  0  0
 85180  1  0  0  0  0
 86 87  1  0  0  0  0
 86181  1  0  0  0  0
 86182  1  0  0  0  0
 87 88  1  0  0  0  0
 88183  1  0  0  0  0
 88184  1  0  0  0  0
 88185  1  0  0  0  0
 89 90  1  0  0  0  0
 90186  1  0  0  0  0
 90187  1  0  0  0  0
 90188  1  0  0  0  0
 91189  1  0  0  0  0
M  END
