
 OpenBabel10072619523D

 33 34  0  0  1  0  0  0  0  0999 V2000
   -0.7269    0.9117    0.7632 C   0  0  0  0  0  0  0  0  0  0  0  0
   -1.4283   -0.2017    0.3073 C   0  0  0  0  0  0  0  0  0  0  0  0
   -0.7489   -1.1890   -0.4020 C   0  0  0  0  0  0  0  0  0  0  0  0
    0.6171   -1.0313   -0.6426 C   0  0  0  0  0  0  0  0  0  0  0  0
    1.2844    0.0559   -0.1883 N   0  3  0  0  0  0  0  0  0  0  0  0
    0.6365    1.0207    0.5055 C   0  0  0  0  0  0  0  0  0  0  0  0
    2.7500    0.1904   -0.3976 C   0  0  1  0  0  0  0  0  0  0  0  0
    3.4882   -0.2501    0.8639 C   0  0  1  0  0  0  0  0  0  0  0  0
    4.8170   -0.6916    0.2823 C   0  0  1  0  0  0  0  0  0  0  0  0
    4.4256   -1.2903   -1.0723 C   0  0  2  0  0  0  0  0  0  0  0  0
    3.2173   -0.6023   -1.4973 O   0  0  0  0  0  0  0  0  0  0  0  0
    4.1227   -2.7927   -1.0175 C   0  0  0  0  0  0  0  0  0  0  0  0
    3.1228   -3.0566   -0.0353 O   0  0  0  0  0  0  0  0  0  0  0  0
    5.5929    0.5062    0.1045 O   0  0  0  0  0  0  0  0  0  0  0  0
    3.6227    0.8196    1.8025 O   0  0  0  0  0  0  0  0  0  0  0  0
   -1.3674   -2.4347   -0.9097 C   0  0  0  0  0  0  0  0  0  0  0  0
   -0.6662   -3.2898   -1.4344 O   0  0  0  0  0  0  0  0  0  0  0  0
   -2.7122   -2.6087   -0.7830 N   0  0  0  0  0  0  0  0  0  0  0  0
   -1.2393    1.6854    1.3317 H   0  0  0  0  0  0  0  0  0  0  0  0
   -2.4881   -0.2801    0.5331 H   0  0  0  0  0  0  0  0  0  0  0  0
    1.1887   -1.7756   -1.1891 H   0  0  0  0  0  0  0  0  0  0  0  0
    1.2189    1.8675    0.8623 H   0  0  0  0  0  0  0  0  0  0  0  0
    2.9337    1.2439   -0.6463 H   0  0  0  0  0  0  0  0  0  0  0  0
    2.9708   -1.0721    1.3670 H   0  0  0  0  0  0  0  0  0  0  0  0
    5.3807   -1.3616    0.9375 H   0  0  0  0  0  0  0  0  0  0  0  0
    5.1924   -1.0996   -1.8310 H   0  0  0  0  0  0  0  0  0  0  0  0
    5.0209   -3.3637   -0.7644 H   0  0  0  0  0  0  0  0  0  0  0  0
    3.7339   -3.1348   -1.9818 H   0  0  0  0  0  0  0  0  0  0  0  0
    2.9283   -4.0147   -0.0883 H   0  0  0  0  0  0  0  0  0  0  0  0
    6.5034    0.2446   -0.1375 H   0  0  0  0  0  0  0  0  0  0  0  0
    4.5244    1.1884    1.6666 H   0  0  0  0  0  0  0  0  0  0  0  0
   -3.3711   -1.9478   -0.3996 H   0  0  0  0  0  0  0  0  0  0  0  0
   -3.1006   -3.4702   -1.1520 H   0  0  0  0  0  0  0  0  0  0  0  0
  1  2  2  0  0  0  0
  1  6  1  0  0  0  0
  1 19  1  0  0  0  0
  2  3  1  0  0  0  0
  2 20  1  0  0  0  0
  3  4  2  0  0  0  0
  3 16  1  0  0  0  0
  4  5  1  0  0  0  0
  4 21  1  0  0  0  0
  5  6  2  0  0  0  0
  5  7  1  0  0  0  0
  6 22  1  0  0  0  0
  7  8  1  0  0  0  0
  7 11  1  0  0  0  0
  7 23  1  6  0  0  0
  8  9  1  0  0  0  0
  8 15  1  0  0  0  0
  8 24  1  1  0  0  0
  9 10  1  0  0  0  0
  9 14  1  0  0  0  0
  9 25  1  1  0  0  0
 10 11  1  0  0  0  0
 10 12  1  0  0  0  0
 10 26  1  6  0  0  0
 12 13  1  0  0  0  0
 12 27  1  0  0  0  0
 12 28  1  0  0  0  0
 13 29  1  0  0  0  0
 14 30  1  0  0  0  0
 15 31  1  0  0  0  0
 16 17  2  0  0  0  0
 16 18  1  0  0  0  0
 18 32  1  0  0  0  0
 18 33  1  0  0  0  0
M  CHG  1   5   1
M  END
