
 OpenBabel10072619443D

 32 33  0  0  0  0  0  0  0  0999 V2000
    2.4693   -0.6508   -0.5580 C   0  0  0  0  0  0  0  0  0  0  0  0
    1.0174   -0.3341   -0.3521 C   0  0  0  0  0  0  0  0  0  0  0  0
    0.4468    0.7758   -0.9835 C   0  0  0  0  0  0  0  0  0  0  0  0
   -0.9105    1.0747   -0.8221 C   0  0  0  0  0  0  0  0  0  0  0  0
   -1.7202    0.2669   -0.0241 C   0  0  0  0  0  0  0  0  0  0  0  0
   -1.1507   -0.8513    0.6025 C   0  0  0  0  0  0  0  0  0  0  0  0
    0.2051   -1.1514    0.4354 C   0  0  0  0  0  0  0  0  0  0  0  0
   -3.0989    0.4952    0.1988 N   0  0  0  0  0  0  0  0  0  0  0  0
   -3.8647    1.5225   -0.3279 C   0  0  0  0  0  0  0  0  0  0  0  0
   -3.4796    2.4233   -1.0678 O   0  0  0  0  0  0  0  0  0  0  0  0
   -5.3272    1.4732    0.0726 C   0  0  0  0  0  0  0  0  0  0  0  0
   -6.1695    1.7671   -1.1092 N   0  3  0  0  0  0  0  0  0  0  0  0
   -6.4791    3.0513   -1.4143 C   0  0  0  0  0  0  0  0  0  0  0  0
   -7.2770    3.3432   -2.5151 C   0  0  0  0  0  0  0  0  0  0  0  0
   -7.7394    2.3083   -3.3175 C   0  0  0  0  0  0  0  0  0  0  0  0
   -7.3821    1.0016   -3.0138 C   0  0  0  0  0  0  0  0  0  0  0  0
   -6.5938    0.7517   -1.8974 C   0  0  0  0  0  0  0  0  0  0  0  0
    3.0712    0.2566   -0.4417 H   0  0  0  0  0  0  0  0  0  0  0  0
    2.6257   -1.0623   -1.5605 H   0  0  0  0  0  0  0  0  0  0  0  0
    2.8263   -1.3806    0.1765 H   0  0  0  0  0  0  0  0  0  0  0  0
    1.0604    1.4227   -1.6076 H   0  0  0  0  0  0  0  0  0  0  0  0
   -1.2871    1.9528   -1.3384 H   0  0  0  0  0  0  0  0  0  0  0  0
   -1.7449   -1.5137    1.2270 H   0  0  0  0  0  0  0  0  0  0  0  0
    0.6235   -2.0266    0.9297 H   0  0  0  0  0  0  0  0  0  0  0  0
   -3.5283   -0.1685    0.8343 H   0  0  0  0  0  0  0  0  0  0  0  0
   -5.5244    2.2250    0.8428 H   0  0  0  0  0  0  0  0  0  0  0  0
   -5.6185    0.4928    0.4597 H   0  0  0  0  0  0  0  0  0  0  0  0
   -6.0753    3.8354   -0.7789 H   0  0  0  0  0  0  0  0  0  0  0  0
   -7.5281    4.3746   -2.7550 H   0  0  0  0  0  0  0  0  0  0  0  0
   -8.3638    2.5209   -4.1844 H   0  0  0  0  0  0  0  0  0  0  0  0
   -7.7139    0.1826   -3.6485 H   0  0  0  0  0  0  0  0  0  0  0  0
   -6.2952   -0.2583   -1.6303 H   0  0  0  0  0  0  0  0  0  0  0  0
  1  2  1  0  0  0  0
  1 18  1  0  0  0  0
  1 19  1  0  0  0  0
  1 20  1  0  0  0  0
  2  3  2  0  0  0  0
  2  7  1  0  0  0  0
  3  4  1  0  0  0  0
  3 21  1  0  0  0  0
  4  5  2  0  0  0  0
  4 22  1  0  0  0  0
  5  6  1  0  0  0  0
  5  8  1  0  0  0  0
  6  7  2  0  0  0  0
  6 23  1  0  0  0  0
  7 24  1  0  0  0  0
  8  9  1  0  0  0  0
  8 25  1  0  0  0  0
  9 10  2  0  0  0  0
  9 11  1  0  0  0  0
 11 12  1  0  0  0  0
 11 26  1  0  0  0  0
 11 27  1  0  0  0  0
 12 13  2  0  0  0  0
 12 17  1  0  0  0  0
 13 14  1  0  0  0  0
 13 28  1  0  0  0  0
 14 15  2  0  0  0  0
 14 29  1  0  0  0  0
 15 16  1  0  0  0  0
 15 30  1  0  0  0  0
 16 17  2  0  0  0  0
 16 31  1  0  0  0  0
 17 32  1  0  0  0  0
M  CHG  1  12   1
M  END
