
 OpenBabel10072619503D

126132  0  0  1  0  0  0  0  0999 V2000
    0.8988   -0.2542   -0.9911 C   0  0  0  0  0  0  0  0  0  0  0  0
    0.0891    0.9607   -0.3435 C   0  0  3  0  0  0  0  0  0  0  0  0
    0.7803    2.4276   -0.5051 C   0  0  3  0  0  0  0  0  0  0  0  0
    1.8058    2.3611    0.5844 C   0  0  3  0  0  0  0  0  0  0  0  0
    1.0254    2.2511    1.8546 C   0  0  3  0  0  0  0  0  0  0  0  0
    0.5618    0.9177    2.2319 C   0  0  3  0  0  0  0  0  0  0  0  0
   -0.3075    0.5511    1.0716 O   0  0  0  0  0  0  0  0  0  0  0  0
   -0.2383    1.2039    3.4658 O   0  0  0  0  0  0  0  0  0  0  0  0
    0.2599    2.0799    4.6007 C   0  0  3  0  0  0  0  0  0  0  0  0
    0.4134    3.6811    4.5933 C   0  0  3  0  0  0  0  0  0  0  0  0
    1.5856    4.2178    3.9251 O   0  0  0  0  0  0  0  0  0  0  0  0
    2.8658    3.5834    4.0847 C   0  0  3  0  0  0  0  0  0  0  0  0
    2.8514    2.1200    4.7174 C   0  0  3  0  0  0  0  0  0  0  0  0
    1.5193    1.5179    5.2335 C   0  0  3  0  0  0  0  0  0  0  0  0
    1.5276    0.0786    5.1203 O   0  0  0  0  0  0  0  0  0  0  0  0
    3.8332    1.9385    5.7571 O   0  0  0  0  0  0  0  0  0  0  0  0
    3.8644    4.4669    4.5911 O   0  0  0  0  0  0  0  0  0  0  0  0
    4.5205    5.4172    3.6937 C   0  0  3  0  0  0  0  0  0  0  0  0
    3.6675    6.3644    2.8103 C   0  0  3  0  0  0  0  0  0  0  0  0
    3.4306    5.9358    1.4510 O   0  0  0  0  0  0  0  0  0  0  0  0
    4.5497    5.5955    0.6188 C   0  0  3  0  0  0  0  0  0  0  0  0
    5.5609    4.6661    1.3742 C   0  0  3  0  0  0  0  0  0  0  0  0
    5.7424    4.9016    2.8988 C   0  0  3  0  0  0  0  0  0  0  0  0
    6.3048    3.7318    3.5200 O   0  0  0  0  0  0  0  0  0  0  0  0
    6.8428    4.6890    0.7021 O   0  0  0  0  0  0  0  0  0  0  0  0
    5.1883    6.7196   -0.0025 O   0  0  0  0  0  0  0  0  0  0  0  0
    4.6651    7.3382   -1.2278 C   0  0  3  0  0  0  0  0  0  0  0  0
    3.2568    7.9468   -1.1457 C   0  0  3  0  0  0  0  0  0  0  0  0
    2.2017    7.1115   -1.6256 O   0  0  0  0  0  0  0  0  0  0  0  0
    2.2368    6.4896   -2.9125 C   0  0  3  0  0  0  0  0  0  0  0  0
    3.6372    5.8545   -3.1629 C   0  0  3  0  0  0  0  0  0  0  0  0
    4.8453    6.6522   -2.6065 C   0  0  3  0  0  0  0  0  0  0  0  0
    6.0458    5.8704   -2.6504 O   0  0  0  0  0  0  0  0  0  0  0  0
    3.7935    5.6254   -4.5814 O   0  0  0  0  0  0  0  0  0  0  0  0
    1.8260    7.2753   -4.0704 O   0  0  0  0  0  0  0  0  0  0  0  0
    0.4160    7.6016   -4.3845 C   0  0  3  0  0  0  0  0  0  0  0  0
   -0.2288    8.3734   -3.2532 C   0  0  3  0  0  0  0  0  0  0  0  0
   -0.3119    7.4080   -2.2393 O   0  0  0  0  0  0  0  0  0  0  0  0
   -1.2908    6.4099   -2.3070 C   0  0  3  0  0  0  0  0  0  0  0  0
   -1.3754    5.7332   -3.6919 C   0  0  3  0  0  0  0  0  0  0  0  0
   -0.5901    6.4754   -4.8166 C   0  0  3  0  0  0  0  0  0  0  0  0
    0.0186    5.5411   -5.7165 O   0  0  0  0  0  0  0  0  0  0  0  0
   -2.7178    5.4096   -4.0806 O   0  0  0  0  0  0  0  0  0  0  0  0
   -2.4020    6.8619   -1.5521 O   0  0  0  0  0  0  0  0  0  0  0  0
   -2.0507    7.1916   -0.1532 C   0  0  3  0  0  0  0  0  0  0  0  0
   -0.5383    7.3015    0.2642 C   0  0  3  0  0  0  0  0  0  0  0  0
    0.1907    6.0687   -0.0395 O   0  0  0  0  0  0  0  0  0  0  0  0
   -0.3196    4.8036    0.4505 C   0  0  3  0  0  0  0  0  0  0  0  0
   -0.1092    3.6559   -0.5604 O   0  0  0  0  0  0  0  0  0  0  0  0
   -1.8974    4.8251    0.8178 C   0  0  3  0  0  0  0  0  0  0  0  0
   -2.6205    6.1820    0.8272 C   0  0  3  0  0  0  0  0  0  0  0  0
   -4.0401    6.0141    0.7096 O   0  0  0  0  0  0  0  0  0  0  0  0
   -2.2250    4.3306    2.1516 O   0  0  0  0  0  0  0  0  0  0  0  0
   -0.2688    7.7696    1.7170 C   0  0  0  0  0  0  0  0  0  0  0  0
    0.9576    8.5116    1.7868 O   0  0  0  0  0  0  0  0  0  0  0  0
   -1.5571    9.1000   -3.5178 C   0  0  0  0  0  0  0  0  0  0  0  0
   -1.3025   10.3529   -4.1473 O   0  0  0  0  0  0  0  0  0  0  0  0
    3.1699    9.3480   -1.7739 C   0  0  0  0  0  0  0  0  0  0  0  0
    4.1662   10.2229   -1.2536 O   0  0  0  0  0  0  0  0  0  0  0  0
    4.2909    7.7768    2.8273 C   0  0  0  0  0  0  0  0  0  0  0  0
    4.1657    8.3746    4.1138 O   0  0  0  0  0  0  0  0  0  0  0  0
    0.3761    4.3919    5.9932 C   0  0  0  0  0  0  0  0  0  0  0  0
    0.7822    3.5790    7.0881 O   0  0  0  0  0  0  0  0  0  0  0  0
   -0.2536    2.9057    1.8428 O   0  0  0  0  0  0  0  0  0  0  0  0
    2.6808    3.4645    0.5649 O   0  0  0  0  0  0  0  0  0  0  0  0
    1.7085    0.0756   -2.1205 O   0  0  0  0  0  0  0  0  0  0  0  0
    0.1918   -1.0251   -1.3315 H   0  0  0  0  0  0  0  0  0  0  0  0
    1.5493   -0.7509   -0.2621 H   0  0  0  0  0  0  0  0  0  0  0  0
   -0.8615    1.0313   -0.8892 H   0  0  0  0  0  0  0  0  0  0  0  0
    1.2870    2.4572   -1.4765 H   0  0  0  0  0  0  0  0  0  0  0  0
    2.4622    1.4828    0.4933 H   0  0  0  0  0  0  0  0  0  0  0  0
    1.6050    2.6471    2.6296 H   0  0  0  0  0  0  0  0  0  0  0  0
    1.3166    0.1505    2.4316 H   0  0  0  0  0  0  0  0  0  0  0  0
   -0.5706    1.9158    5.3037 H   0  0  0  0  0  0  0  0  0  0  0  0
   -0.4382    4.1076    4.0510 H   0  0  0  0  0  0  0  0  0  0  0  0
    3.2293    3.4262    3.0651 H   0  0  0  0  0  0  0  0  0  0  0  0
    3.1934    1.4483    3.9181 H   0  0  0  0  0  0  0  0  0  0  0  0
    1.4743    1.6726    6.3121 H   0  0  0  0  0  0  0  0  0  0  0  0
    0.6022   -0.2101    5.2378 H   0  0  0  0  0  0  0  0  0  0  0  0
    3.6776    1.0362    6.0831 H   0  0  0  0  0  0  0  0  0  0  0  0
    4.9779    6.0477    4.4695 H   0  0  0  0  0  0  0  0  0  0  0  0
    2.6782    6.4384    3.2737 H   0  0  0  0  0  0  0  0  0  0  0  0
    4.1761    5.0141   -0.2270 H   0  0  0  0  0  0  0  0  0  0  0  0
    5.2112    3.6328    1.2672 H   0  0  0  0  0  0  0  0  0  0  0  0
    6.5219    5.6702    2.9974 H   0  0  0  0  0  0  0  0  0  0  0  0
    5.7313    3.4813    4.2659 H   0  0  0  0  0  0  0  0  0  0  0  0
    7.3522    5.4388    1.0635 H   0  0  0  0  0  0  0  0  0  0  0  0
    5.3775    8.1713   -1.2795 H   0  0  0  0  0  0  0  0  0  0  0  0
    3.0607    8.0879   -0.0824 H   0  0  0  0  0  0  0  0  0  0  0  0
    1.5319    5.6515   -2.8712 H   0  0  0  0  0  0  0  0  0  0  0  0
    3.6638    4.8649   -2.6942 H   0  0  0  0  0  0  0  0  0  0  0  0
    5.0156    7.4606   -3.3341 H   0  0  0  0  0  0  0  0  0  0  0  0
    6.3336    5.6857   -1.7374 H   0  0  0  0  0  0  0  0  0  0  0  0
    3.6000    6.4813   -5.0181 H   0  0  0  0  0  0  0  0  0  0  0  0
    0.5122    8.2621   -5.2555 H   0  0  0  0  0  0  0  0  0  0  0  0
    0.4894    9.1219   -2.9086 H   0  0  0  0  0  0  0  0  0  0  0  0
   -0.9718    5.5508   -1.7388 H   0  0  0  0  0  0  0  0  0  0  0  0
   -0.8766    4.7572   -3.5921 H   0  0  0  0  0  0  0  0  0  0  0  0
   -1.3619    6.9660   -5.4278 H   0  0  0  0  0  0  0  0  0  0  0  0
    0.8303    5.2040   -5.3022 H   0  0  0  0  0  0  0  0  0  0  0  0
   -2.9541    4.5608   -3.6571 H   0  0  0  0  0  0  0  0  0  0  0  0
   -2.5412    8.1624    0.0171 H   0  0  0  0  0  0  0  0  0  0  0  0
   -0.0810    8.1093   -0.3189 H   0  0  0  0  0  0  0  0  0  0  0  0
    0.3291    4.6905    1.3149 H   0  0  0  0  0  0  0  0  0  0  0  0
   -2.4013    4.1265    0.1384 H   0  0  0  0  0  0  0  0  0  0  0  0
   -2.5142    6.6217    1.8276 H   0  0  0  0  0  0  0  0  0  0  0  0
   -4.3228    5.5526    1.5219 H   0  0  0  0  0  0  0  0  0  0  0  0
   -1.6671    3.5489    2.3193 H   0  0  0  0  0  0  0  0  0  0  0  0
   -0.1547    6.9273    2.4015 H   0  0  0  0  0  0  0  0  0  0  0  0
   -1.0528    8.4431    2.0767 H   0  0  0  0  0  0  0  0  0  0  0  0
    1.5922    8.0248    1.2327 H   0  0  0  0  0  0  0  0  0  0  0  0
   -2.0826    9.2932   -2.5741 H   0  0  0  0  0  0  0  0  0  0  0  0
   -2.2501    8.5351   -4.1474 H   0  0  0  0  0  0  0  0  0  0  0  0
   -1.5352   11.0448   -3.5020 H   0  0  0  0  0  0  0  0  0  0  0  0
    2.1879    9.7881   -1.5727 H   0  0  0  0  0  0  0  0  0  0  0  0
    3.2904    9.3048   -2.8592 H   0  0  0  0  0  0  0  0  0  0  0  0
    3.7605   10.7685   -0.5566 H   0  0  0  0  0  0  0  0  0  0  0  0
    3.8207    8.4344    2.0937 H   0  0  0  0  0  0  0  0  0  0  0  0
    5.3581    7.7376    2.5862 H   0  0  0  0  0  0  0  0  0  0  0  0
    3.2215    8.5705    4.2553 H   0  0  0  0  0  0  0  0  0  0  0  0
   -0.6410    4.7204    6.2308 H   0  0  0  0  0  0  0  0  0  0  0  0
    1.0209    5.2814    5.9910 H   0  0  0  0  0  0  0  0  0  0  0  0
    0.6636    4.0897    7.8951 H   0  0  0  0  0  0  0  0  0  0  0  0
   -0.8697    2.2450    1.4601 H   0  0  0  0  0  0  0  0  0  0  0  0
    2.1809    4.2556    0.2876 H   0  0  0  0  0  0  0  0  0  0  0  0
    2.3817   -0.6264   -2.2190 H   0  0  0  0  0  0  0  0  0  0  0  0
  1  2  1  0  0  0  0
  1 66  1  0  0  0  0
  1 67  1  0  0  0  0
  1 68  1  0  0  0  0
  2  3  1  0  0  0  0
  2  7  1  0  0  0  0
  2 69  1  0  0  0  0
  3  4  1  0  0  0  0
  3 49  1  0  0  0  0
  3 70  1  0  0  0  0
  4  5  1  0  0  0  0
  4 65  1  0  0  0  0
  4 71  1  0  0  0  0
  5  6  1  0  0  0  0
  5 64  1  0  0  0  0
  5 72  1  0  0  0  0
  6  7  1  0  0  0  0
  6  8  1  0  0  0  0
  6 73  1  0  0  0  0
  8  9  1  0  0  0  0
  9 10  1  0  0  0  0
  9 14  1  0  0  0  0
  9 74  1  0  0  0  0
 10 11  1  0  0  0  0
 10 62  1  0  0  0  0
 10 75  1  0  0  0  0
 11 12  1  0  0  0  0
 12 13  1  0  0  0  0
 12 17  1  0  0  0  0
 12 76  1  0  0  0  0
 13 14  1  0  0  0  0
 13 16  1  0  0  0  0
 13 77  1  0  0  0  0
 14 15  1  0  0  0  0
 14 78  1  0  0  0  0
 15 79  1  0  0  0  0
 16 80  1  0  0  0  0
 17 18  1  0  0  0  0
 18 19  1  0  0  0  0
 18 23  1  0  0  0  0
 18 81  1  0  0  0  0
 19 20  1  0  0  0  0
 19 60  1  0  0  0  0
 19 82  1  0  0  0  0
 20 21  1  0  0  0  0
 21 22  1  0  0  0  0
 21 26  1  0  0  0  0
 21 83  1  0  0  0  0
 22 23  1  0  0  0  0
 22 25  1  0  0  0  0
 22 84  1  0  0  0  0
 23 24  1  0  0  0  0
 23 85  1  0  0  0  0
 24 86  1  0  0  0  0
 25 87  1  0  0  0  0
 26 27  1  0  0  0  0
 27 28  1  0  0  0  0
 27 32  1  0  0  0  0
 27 88  1  0  0  0  0
 28 29  1  0  0  0  0
 28 58  1  0  0  0  0
 28 89  1  0  0  0  0
 29 30  1  0  0  0  0
 30 31  1  0  0  0  0
 30 35  1  0  0  0  0
 30 90  1  0  0  0  0
 31 32  1  0  0  0  0
 31 34  1  0  0  0  0
 31 91  1  0  0  0  0
 32 33  1  0  0  0  0
 32 92  1  0  0  0  0
 33 93  1  0  0  0  0
 34 94  1  0  0  0  0
 35 36  1  0  0  0  0
 36 37  1  0  0  0  0
 36 41  1  0  0  0  0
 36 95  1  0  0  0  0
 37 38  1  0  0  0  0
 37 56  1  0  0  0  0
 37 96  1  0  0  0  0
 38 39  1  0  0  0  0
 39 40  1  0  0  0  0
 39 44  1  0  0  0  0
 39 97  1  0  0  0  0
 40 41  1  0  0  0  0
 40 43  1  0  0  0  0
 40 98  1  0  0  0  0
 41 42  1  0  0  0  0
 41 99  1  0  0  0  0
 42100  1  0  0  0  0
 43101  1  0  0  0  0
 44 45  1  0  0  0  0
 45 46  1  0  0  0  0
 45 51  1  0  0  0  0
 45102  1  0  0  0  0
 46 47  1  0  0  0  0
 46 54  1  0  0  0  0
 46103  1  0  0  0  0
 47 48  1  0  0  0  0
 48 49  1  0  0  0  0
 48 50  1  0  0  0  0
 48104  1  0  0  0  0
 50 51  1  0  0  0  0
 50 53  1  0  0  0  0
 50105  1  0  0  0  0
 51 52  1  0  0  0  0
 51106  1  0  0  0  0
 52107  1  0  0  0  0
 53108  1  0  0  0  0
 54 55  1  0  0  0  0
 54109  1  0  0  0  0
 54110  1  0  0  0  0
 55111  1  0  0  0  0
 56 57  1  0  0  0  0
 56112  1  0  0  0  0
 56113  1  0  0  0  0
 57114  1  0  0  0  0
 58 59  1  0  0  0  0
 58115  1  0  0  0  0
 58116  1  0  0  0  0
 59117  1  0  0  0  0
 60 61  1  0  0  0  0
 60118  1  0  0  0  0
 60119  1  0  0  0  0
 61120  1  0  0  0  0
 62 63  1  0  0  0  0
 62121  1  0  0  0  0
 62122  1  0  0  0  0
 63123  1  0  0  0  0
 64124  1  0  0  0  0
 65125  1  0  0  0  0
 66126  1  0  0  0  0
M  END
