
 OpenBabel10072620063D

104105  0  0  1  0  0  0  0  0999 V2000
   33.3189    4.2900  -35.3143 C   0  0  0  0  0  0  0  0  0  0  0  0
   32.1093    4.1915  -34.3978 C   0  0  0  0  0  0  0  0  0  0  0  0
   32.2927    3.1174  -33.3255 C   0  0  0  0  0  0  0  0  0  0  0  0
   31.0668    3.0313  -32.4115 C   0  0  0  0  0  0  0  0  0  0  0  0
   31.2505    1.9573  -31.3382 C   0  0  0  0  0  0  0  0  0  0  0  0
   30.0329    1.8577  -30.4163 C   0  0  0  0  0  0  0  0  0  0  0  0
   30.2406    0.7785  -29.3528 C   0  0  0  0  0  0  0  0  0  0  0  0
   29.0357    0.6606  -28.4198 C   0  0  0  0  0  0  0  0  0  0  0  0
   29.2694   -0.4246  -27.3674 C   0  0  0  0  0  0  0  0  0  0  0  0
   28.0743   -0.5547  -26.4277 C   0  0  0  0  0  0  0  0  0  0  0  0
   28.3063   -1.6401  -25.3764 C   0  0  0  0  0  0  0  0  0  0  0  0
   27.0996   -1.7395  -24.4487 C   0  0  0  0  0  0  0  0  0  0  0  0
   27.2848   -2.8210  -23.3884 C   0  0  0  0  0  0  0  0  0  0  0  0
   26.0704   -2.8590  -22.4678 C   0  0  0  0  0  0  0  0  0  0  0  0
   26.1797   -3.9708  -21.4318 C   0  0  0  0  0  0  0  0  0  0  0  0
   25.0048   -3.8937  -20.4628 C   0  0  0  0  0  0  0  0  0  0  0  0
   25.0187   -5.0606  -19.4863 C   0  0  0  0  0  0  0  0  0  0  0  0
   23.9471   -4.8767  -18.4218 C   0  0  0  0  0  0  0  0  0  0  0  0
   23.9334   -6.0025  -17.5239 N   0  0  0  0  0  0  0  0  0  0  0  0
   23.0232   -7.0073  -17.6139 C   0  0  0  0  0  0  0  0  0  0  0  0
   22.1076   -7.0695  -18.4163 O   0  0  0  0  0  0  0  0  0  0  0  0
   23.3020   -7.9282  -16.6629 O   0  0  0  0  0  0  0  0  0  0  0  0
   22.3625   -9.0046  -16.5361 C   0  0  0  0  0  0  0  0  0  0  0  0
   22.9661  -10.2867  -17.0939 C   0  0  1  0  0  0  0  0  0  0  0  0
   24.2702  -10.8285  -16.4704 C   0  0  0  0  0  0  0  0  0  0  0  0
   23.3088  -11.6282  -15.5692 C   0  0  1  0  0  0  0  0  0  0  0  0
   22.2430  -11.4389  -16.5539 O   0  0  0  0  0  0  0  0  0  0  0  0
   23.5180  -13.1048  -15.2803 C   0  0  0  0  0  0  0  0  0  0  0  0
   22.3310  -13.5829  -14.6055 O   0  0  0  0  0  0  0  0  0  0  0  0
   22.0426  -14.9006  -14.7288 C   0  0  0  0  0  0  0  0  0  0  0  0
   22.7331  -15.6979  -15.3588 O   0  0  0  0  0  0  0  0  0  0  0  0
   20.9239  -15.2828  -14.0044 N   0  0  0  0  0  0  0  0  0  0  0  0
   20.7700  -16.6938  -13.6492 C   0  0  0  0  0  0  0  0  0  0  0  0
   20.3087  -17.5644  -14.8094 C   0  0  0  0  0  0  0  0  0  0  0  0
   18.9351  -17.5563  -15.1202 C   0  0  0  0  0  0  0  0  0  0  0  0
   18.4589  -18.2570  -16.2192 C   0  0  0  0  0  0  0  0  0  0  0  0
   19.3411  -18.9656  -17.0085 C   0  0  0  0  0  0  0  0  0  0  0  0
   20.6719  -18.9967  -16.6569 C   0  0  0  0  0  0  0  0  0  0  0  0
   21.1421  -18.3438  -15.5657 N   0  3  0  0  0  0  0  0  0  0  0  0
   22.5780  -18.5638  -15.2719 C   0  0  0  0  0  0  0  0  0  0  0  0
   22.7744  -19.9639  -14.7117 C   0  0  0  0  0  0  0  0  0  0  0  0
   19.8652  -14.4004  -13.8801 C   0  0  0  0  0  0  0  0  0  0  0  0
   19.4750  -13.6985  -14.8102 O   0  0  0  0  0  0  0  0  0  0  0  0
   19.0997  -14.4320  -12.5792 C   0  0  0  0  0  0  0  0  0  0  0  0
   33.1572    5.0661  -36.0694 H   0  0  0  0  0  0  0  0  0  0  0  0
   33.4973    3.3433  -35.8343 H   0  0  0  0  0  0  0  0  0  0  0  0
   34.2206    4.5488  -34.7502 H   0  0  0  0  0  0  0  0  0  0  0  0
   31.2215    3.9660  -34.9999 H   0  0  0  0  0  0  0  0  0  0  0  0
   31.9407    5.1646  -33.9221 H   0  0  0  0  0  0  0  0  0  0  0  0
   33.1833    3.3435  -32.7264 H   0  0  0  0  0  0  0  0  0  0  0  0
   32.4640    2.1451  -33.8038 H   0  0  0  0  0  0  0  0  0  0  0  0
   30.1772    2.8046  -33.0117 H   0  0  0  0  0  0  0  0  0  0  0  0
   30.8962    4.0041  -31.9344 H   0  0  0  0  0  0  0  0  0  0  0  0
   32.1422    2.1869  -30.7422 H   0  0  0  0  0  0  0  0  0  0  0  0
   31.4247    0.9873  -31.8195 H   0  0  0  0  0  0  0  0  0  0  0  0
   29.1395    1.6246  -31.0080 H   0  0  0  0  0  0  0  0  0  0  0  0
   29.8573    2.8249  -29.9302 H   0  0  0  0  0  0  0  0  0  0  0  0
   31.1357    1.0121  -28.7635 H   0  0  0  0  0  0  0  0  0  0  0  0
   30.4187   -0.1875  -29.8407 H   0  0  0  0  0  0  0  0  0  0  0  0
   28.1376    0.4220  -29.0025 H   0  0  0  0  0  0  0  0  0  0  0  0
   28.8542    1.6224  -27.9248 H   0  0  0  0  0  0  0  0  0  0  0  0
   30.1675   -0.1854  -26.7850 H   0  0  0  0  0  0  0  0  0  0  0  0
   29.4511   -1.3856  -27.8635 H   0  0  0  0  0  0  0  0  0  0  0  0
   27.1736   -0.7924  -27.0070 H   0  0  0  0  0  0  0  0  0  0  0  0
   27.8926    0.4045  -25.9276 H   0  0  0  0  0  0  0  0  0  0  0  0
   29.2047   -1.4071  -24.7920 H   0  0  0  0  0  0  0  0  0  0  0  0
   28.4798   -2.6052  -25.8679 H   0  0  0  0  0  0  0  0  0  0  0  0
   26.2026   -1.9609  -25.0404 H   0  0  0  0  0  0  0  0  0  0  0  0
   26.9326   -0.7708  -23.9612 H   0  0  0  0  0  0  0  0  0  0  0  0
   28.1881   -2.6210  -22.7993 H   0  0  0  0  0  0  0  0  0  0  0  0
   27.4175   -3.7959  -23.8716 H   0  0  0  0  0  0  0  0  0  0  0  0
   25.1602   -3.0066  -23.0614 H   0  0  0  0  0  0  0  0  0  0  0  0
   25.9667   -1.8921  -21.9604 H   0  0  0  0  0  0  0  0  0  0  0  0
   27.1185   -3.8715  -20.8734 H   0  0  0  0  0  0  0  0  0  0  0  0
   26.1951   -4.9484  -21.9287 H   0  0  0  0  0  0  0  0  0  0  0  0
   24.0571   -3.9037  -21.0152 H   0  0  0  0  0  0  0  0  0  0  0  0
   25.0524   -2.9439  -19.9152 H   0  0  0  0  0  0  0  0  0  0  0  0
   26.0021   -5.1469  -19.0088 H   0  0  0  0  0  0  0  0  0  0  0  0
   24.8511   -6.0001  -20.0275 H   0  0  0  0  0  0  0  0  0  0  0  0
   22.9622   -4.7643  -18.8911 H   0  0  0  0  0  0  0  0  0  0  0  0
   24.1478   -3.9829  -17.8215 H   0  0  0  0  0  0  0  0  0  0  0  0
   24.6647   -6.1149  -16.8346 H   0  0  0  0  0  0  0  0  0  0  0  0
   21.3964   -8.8013  -17.0138 H   0  0  0  0  0  0  0  0  0  0  0  0
   22.1625   -9.1166  -15.4651 H   0  0  0  0  0  0  0  0  0  0  0  0
   22.9849  -10.3063  -18.1898 H   0  0  0  0  0  0  0  0  0  0  0  0
   24.9132  -10.0938  -15.9782 H   0  0  0  0  0  0  0  0  0  0  0  0
   24.8681  -11.4209  -17.1689 H   0  0  0  0  0  0  0  0  0  0  0  0
   23.0679  -11.0864  -14.6427 H   0  0  0  0  0  0  0  0  0  0  0  0
   23.6969  -13.6653  -16.2069 H   0  0  0  0  0  0  0  0  0  0  0  0
   24.3664  -13.2355  -14.6003 H   0  0  0  0  0  0  0  0  0  0  0  0
   20.0188  -16.8012  -12.8614 H   0  0  0  0  0  0  0  0  0  0  0  0
   21.7064  -17.0560  -13.2200 H   0  0  0  0  0  0  0  0  0  0  0  0
   18.2214  -16.9969  -14.5142 H   0  0  0  0  0  0  0  0  0  0  0  0
   17.4031  -18.2283  -16.4690 H   0  0  0  0  0  0  0  0  0  0  0  0
   19.0098  -19.4947  -17.8972 H   0  0  0  0  0  0  0  0  0  0  0  0
   21.3882  -19.5611  -17.2447 H   0  0  0  0  0  0  0  0  0  0  0  0
   22.9331  -17.8421  -14.5487 H   0  0  0  0  0  0  0  0  0  0  0  0
   23.1273  -18.4174  -16.2092 H   0  0  0  0  0  0  0  0  0  0  0  0
   22.1875  -20.1100  -13.7993 H   0  0  0  0  0  0  0  0  0  0  0  0
   23.8230  -20.1249  -14.4532 H   0  0  0  0  0  0  0  0  0  0  0  0
   22.5001  -20.7376  -15.4353 H   0  0  0  0  0  0  0  0  0  0  0  0
   18.2390  -15.1052  -12.6413 H   0  0  0  0  0  0  0  0  0  0  0  0
   18.7349  -13.4246  -12.3647 H   0  0  0  0  0  0  0  0  0  0  0  0
   19.7559  -14.7180  -11.7540 H   0  0  0  0  0  0  0  0  0  0  0  0
  1  2  1  0  0  0  0
  1 45  1  0  0  0  0
  1 46  1  0  0  0  0
  1 47  1  0  0  0  0
  2  3  1  0  0  0  0
  2 48  1  0  0  0  0
  2 49  1  0  0  0  0
  3  4  1  0  0  0  0
  3 50  1  0  0  0  0
  3 51  1  0  0  0  0
  4  5  1  0  0  0  0
  4 52  1  0  0  0  0
  4 53  1  0  0  0  0
  5  6  1  0  0  0  0
  5 54  1  0  0  0  0
  5 55  1  0  0  0  0
  6  7  1  0  0  0  0
  6 56  1  0  0  0  0
  6 57  1  0  0  0  0
  7  8  1  0  0  0  0
  7 58  1  0  0  0  0
  7 59  1  0  0  0  0
  8  9  1  0  0  0  0
  8 60  1  0  0  0  0
  8 61  1  0  0  0  0
  9 10  1  0  0  0  0
  9 62  1  0  0  0  0
  9 63  1  0  0  0  0
 10 11  1  0  0  0  0
 10 64  1  0  0  0  0
 10 65  1  0  0  0  0
 11 12  1  0  0  0  0
 11 66  1  0  0  0  0
 11 67  1  0  0  0  0
 12 13  1  0  0  0  0
 12 68  1  0  0  0  0
 12 69  1  0  0  0  0
 13 14  1  0  0  0  0
 13 70  1  0  0  0  0
 13 71  1  0  0  0  0
 14 15  1  0  0  0  0
 14 72  1  0  0  0  0
 14 73  1  0  0  0  0
 15 16  1  0  0  0  0
 15 74  1  0  0  0  0
 15 75  1  0  0  0  0
 16 17  1  0  0  0  0
 16 76  1  0  0  0  0
 16 77  1  0  0  0  0
 17 18  1  0  0  0  0
 17 78  1  0  0  0  0
 17 79  1  0  0  0  0
 18 19  1  0  0  0  0
 18 80  1  0  0  0  0
 18 81  1  0  0  0  0
 19 20  1  0  0  0  0
 19 82  1  0  0  0  0
 20 21  2  0  0  0  0
 20 22  1  0  0  0  0
 22 23  1  0  0  0  0
 23 83  1  0  0  0  0
 23 84  1  0  0  0  0
 24 25  1  0  0  0  0
 24 27  1  0  0  0  0
 24 23  1  0  0  0  0
 24 85  1  6  0  0  0
 25 26  1  0  0  0  0
 25 86  1  0  0  0  0
 25 87  1  0  0  0  0
 26 27  1  0  0  0  0
 26 28  1  0  0  0  0
 26 88  1  1  0  0  0
 28 29  1  0  0  0  0
 28 89  1  0  0  0  0
 28 90  1  0  0  0  0
 29 30  1  0  0  0  0
 30 31  2  0  0  0  0
 30 32  1  0  0  0  0
 32 33  1  0  0  0  0
 32 42  1  0  0  0  0
 33 34  1  0  0  0  0
 33 91  1  0  0  0  0
 33 92  1  0  0  0  0
 34 35  2  0  0  0  0
 34 39  1  0  0  0  0
 35 36  1  0  0  0  0
 35 93  1  0  0  0  0
 36 37  2  0  0  0  0
 36 94  1  0  0  0  0
 37 38  1  0  0  0  0
 37 95  1  0  0  0  0
 38 39  2  0  0  0  0
 38 96  1  0  0  0  0
 39 40  1  0  0  0  0
 40 41  1  0  0  0  0
 40 97  1  0  0  0  0
 40 98  1  0  0  0  0
 41 99  1  0  0  0  0
 41100  1  0  0  0  0
 41101  1  0  0  0  0
 42 43  2  0  0  0  0
 42 44  1  0  0  0  0
 44102  1  0  0  0  0
 44103  1  0  0  0  0
 44104  1  0  0  0  0
M  CHG  1  39   1
M  END
