
 OpenBabel10072619513D

 60 63  0  0  0  0  0  0  0  0999 V2000
    6.5871    1.9154   -4.9991 C   0  0  0  0  0  0  0  0  0  0  0  0
    6.1451    1.2126   -3.7508 C   0  0  0  0  0  0  0  0  0  0  0  0
    5.8650    1.9417   -2.5851 C   0  0  0  0  0  0  0  0  0  0  0  0
    5.4045    1.2749   -1.4298 C   0  0  0  0  0  0  0  0  0  0  0  0
    5.2772   -0.1124   -1.4717 C   0  0  0  0  0  0  0  0  0  0  0  0
    5.5779   -0.8651   -2.6094 C   0  0  0  0  0  0  0  0  0  0  0  0
    6.0046   -0.1789   -3.7503 C   0  0  0  0  0  0  0  0  0  0  0  0
    4.8318   -0.5159   -0.2366 N   0  0  0  0  0  0  0  0  0  0  0  0
    4.6668    0.5629    0.5947 C   0  0  0  0  0  0  0  0  0  0  0  0
    4.9907    1.7033   -0.1250 C   0  0  0  0  0  0  0  0  0  0  0  0
    4.9280    3.1204    0.3621 C   0  0  0  0  0  0  0  0  0  0  0  0
    3.9720    3.9856   -0.4718 C   0  0  0  0  0  0  0  0  0  0  0  0
    3.7289    5.3510    0.0597 N   0  0  0  0  0  0  0  0  0  0  0  0
    4.9273    6.1469    0.3993 C   0  0  0  0  0  0  0  0  0  0  0  0
    5.9465    6.3069   -0.7002 C   0  0  0  0  0  0  0  0  0  0  0  0
    5.6101    6.7953   -1.9588 C   0  0  0  0  0  0  0  0  0  0  0  0
    6.4976    6.9734   -2.9677 N   0  0  0  0  0  0  0  0  0  0  0  0
    7.7883    6.6846   -2.7025 C   0  0  0  0  0  0  0  0  0  0  0  0
    8.2357    6.2151   -1.4808 C   0  0  0  0  0  0  0  0  0  0  0  0
    7.2990    6.0236   -0.4685 C   0  0  0  0  0  0  0  0  0  0  0  0
    2.4326    5.9268   -0.0041 C   0  0  0  0  0  0  0  0  0  0  0  0
    2.1249    7.5799   -0.0362 S   0  0  0  0  0  0  0  0  0  0  0  0
    1.4399    4.9656    0.0563 N   0  0  0  0  0  0  0  0  0  0  0  0
    0.0977    4.9674   -0.3829 C   0  0  0  0  0  0  0  0  0  0  0  0
   -0.3867    5.7378   -1.4379 C   0  0  0  0  0  0  0  0  0  0  0  0
   -1.7216    5.6113   -1.8401 C   0  0  0  0  0  0  0  0  0  0  0  0
   -2.5746    4.7107   -1.1985 C   0  0  0  0  0  0  0  0  0  0  0  0
   -2.0974    3.9268   -0.1502 C   0  0  0  0  0  0  0  0  0  0  0  0
   -0.7691    4.0623    0.2510 C   0  0  0  0  0  0  0  0  0  0  0  0
   -0.2742    3.2809    1.2683 O   0  0  0  0  0  0  0  0  0  0  0  0
   -0.6983    3.7723    2.5441 C   0  0  0  0  0  0  0  0  0  0  0  0
    4.2149    0.3918    1.9983 C   0  0  0  0  0  0  0  0  0  0  0  0
    6.6278    3.0007   -4.8578 H   0  0  0  0  0  0  0  0  0  0  0  0
    5.8822    1.7072   -5.8106 H   0  0  0  0  0  0  0  0  0  0  0  0
    7.5859    1.5728   -5.2852 H   0  0  0  0  0  0  0  0  0  0  0  0
    5.9941    3.0216   -2.5747 H   0  0  0  0  0  0  0  0  0  0  0  0
    5.4775   -1.9453   -2.6174 H   0  0  0  0  0  0  0  0  0  0  0  0
    6.2268   -0.7446   -4.6527 H   0  0  0  0  0  0  0  0  0  0  0  0
    4.6600   -1.4798    0.0177 H   0  0  0  0  0  0  0  0  0  0  0  0
    5.9434    3.5281    0.3357 H   0  0  0  0  0  0  0  0  0  0  0  0
    4.6119    3.1444    1.4124 H   0  0  0  0  0  0  0  0  0  0  0  0
    3.0352    3.4393   -0.6106 H   0  0  0  0  0  0  0  0  0  0  0  0
    4.3595    4.1254   -1.4864 H   0  0  0  0  0  0  0  0  0  0  0  0
    5.3855    5.6358    1.2555 H   0  0  0  0  0  0  0  0  0  0  0  0
    4.6676    7.1357    0.7819 H   0  0  0  0  0  0  0  0  0  0  0  0
    4.5848    7.0575   -2.2053 H   0  0  0  0  0  0  0  0  0  0  0  0
    8.4767    6.8561   -3.5257 H   0  0  0  0  0  0  0  0  0  0  0  0
    9.2880    6.0077   -1.3203 H   0  0  0  0  0  0  0  0  0  0  0  0
    7.6356    5.6613    0.5007 H   0  0  0  0  0  0  0  0  0  0  0  0
    1.6346    4.2191    0.7142 H   0  0  0  0  0  0  0  0  0  0  0  0
    0.2604    6.4100   -1.9928 H   0  0  0  0  0  0  0  0  0  0  0  0
   -2.0952    6.2158   -2.6636 H   0  0  0  0  0  0  0  0  0  0  0  0
   -3.6037    4.6052   -1.5303 H   0  0  0  0  0  0  0  0  0  0  0  0
   -2.7466    3.2069    0.3358 H   0  0  0  0  0  0  0  0  0  0  0  0
   -1.4298    3.0752    2.9667 H   0  0  0  0  0  0  0  0  0  0  0  0
   -1.1244    4.7826    2.5153 H   0  0  0  0  0  0  0  0  0  0  0  0
    0.1749    3.8002    3.2057 H   0  0  0  0  0  0  0  0  0  0  0  0
    4.2652   -0.6569    2.3082 H   0  0  0  0  0  0  0  0  0  0  0  0
    3.1814    0.7318    2.1130 H   0  0  0  0  0  0  0  0  0  0  0  0
    4.8494    0.9723    2.6758 H   0  0  0  0  0  0  0  0  0  0  0  0
  1  2  1  0  0  0  0
  1 33  1  0  0  0  0
  1 34  1  0  0  0  0
  1 35  1  0  0  0  0
  2  3  2  0  0  0  0
  2  7  1  0  0  0  0
  3  4  1  0  0  0  0
  3 36  1  0  0  0  0
  4  5  2  0  0  0  0
  4 10  1  0  0  0  0
  5  6  1  0  0  0  0
  5  8  1  0  0  0  0
  6  7  2  0  0  0  0
  6 37  1  0  0  0  0
  7 38  1  0  0  0  0
  8  9  1  0  0  0  0
  8 39  1  0  0  0  0
  9 10  2  0  0  0  0
  9 32  1  0  0  0  0
 10 11  1  0  0  0  0
 11 12  1  0  0  0  0
 11 40  1  0  0  0  0
 11 41  1  0  0  0  0
 12 13  1  0  0  0  0
 12 42  1  0  0  0  0
 12 43  1  0  0  0  0
 13 14  1  0  0  0  0
 13 21  1  0  0  0  0
 14 15  1  0  0  0  0
 14 44  1  0  0  0  0
 14 45  1  0  0  0  0
 15 16  2  0  0  0  0
 15 20  1  0  0  0  0
 16 17  1  0  0  0  0
 16 46  1  0  0  0  0
 17 18  2  0  0  0  0
 18 19  1  0  0  0  0
 18 47  1  0  0  0  0
 19 20  2  0  0  0  0
 19 48  1  0  0  0  0
 20 49  1  0  0  0  0
 21 22  2  0  0  0  0
 21 23  1  0  0  0  0
 23 24  1  0  0  0  0
 23 50  1  0  0  0  0
 24 25  2  0  0  0  0
 24 29  1  0  0  0  0
 25 26  1  0  0  0  0
 25 51  1  0  0  0  0
 26 27  2  0  0  0  0
 26 52  1  0  0  0  0
 27 28  1  0  0  0  0
 27 53  1  0  0  0  0
 28 29  2  0  0  0  0
 28 54  1  0  0  0  0
 29 30  1  0  0  0  0
 30 31  1  0  0  0  0
 31 55  1  0  0  0  0
 31 56  1  0  0  0  0
 31 57  1  0  0  0  0
 32 58  1  0  0  0  0
 32 59  1  0  0  0  0
 32 60  1  0  0  0  0
M  END
