
 OpenBabel10072620203D

 38 40  0  0  0  0  0  0  0  0999 V2000
    2.4965   -1.1762    0.0240 C   0  0  0  0  0  0  0  0  0  0  0  0
    2.7399    0.1857    0.1427 C   0  0  0  0  0  0  0  0  0  0  0  0
    1.6696    1.0808    0.1960 C   0  0  0  0  0  0  0  0  0  0  0  0
    0.3277    0.6372    0.1291 C   0  0  0  0  0  0  0  0  0  0  0  0
    0.0978   -0.7562    0.0120 C   0  0  0  0  0  0  0  0  0  0  0  0
    1.1849   -1.6442   -0.0378 C   0  0  0  0  0  0  0  0  0  0  0  0
   -1.2158   -1.2444   -0.0524 C   0  0  0  0  0  0  0  0  0  0  0  0
   -2.3056   -0.3784   -0.0000 C   0  0  0  0  0  0  0  0  0  0  0  0
   -2.0964    0.9923    0.1122 C   0  0  0  0  0  0  0  0  0  0  0  0
   -0.7935    1.5088    0.1727 C   0  0  0  0  0  0  0  0  0  0  0  0
   -0.6394    2.9659    0.2738 C   0  0  0  0  0  0  0  0  0  0  0  0
   -0.7549    3.7534   -0.8067 C   0  0  0  0  0  0  0  0  0  0  0  0
   -0.5866    5.1968   -0.6967 C   0  0  0  0  0  0  0  0  0  0  0  0
    0.6794    5.7540   -0.5446 C   0  0  0  0  0  0  0  0  0  0  0  0
    0.8041    7.1276   -0.3873 C   0  0  0  0  0  0  0  0  0  0  0  0
   -0.2882    7.9278   -0.4014 N   0  3  0  0  0  0  0  0  0  0  0  0
   -1.5272    7.3967   -0.5332 C   0  0  0  0  0  0  0  0  0  0  0  0
   -1.7007    6.0283   -0.6900 C   0  0  0  0  0  0  0  0  0  0  0  0
   -0.1320    9.3901   -0.2099 C   0  0  0  0  0  0  0  0  0  0  0  0
   -0.1807    9.7205    1.2612 C   0  0  0  0  0  0  0  0  0  0  0  0
   -0.3276    8.8723    2.1302 O   0  0  0  0  0  0  0  0  0  0  0  0
   -0.0449   11.0296    1.5549 O   0  0  0  0  0  0  0  0  0  0  0  0
    3.3261   -1.8774   -0.0172 H   0  0  0  0  0  0  0  0  0  0  0  0
    3.7615    0.5527    0.1956 H   0  0  0  0  0  0  0  0  0  0  0  0
    1.8943    2.1391    0.2933 H   0  0  0  0  0  0  0  0  0  0  0  0
    1.0182   -2.7165   -0.1251 H   0  0  0  0  0  0  0  0  0  0  0  0
   -1.4003   -2.3137   -0.1398 H   0  0  0  0  0  0  0  0  0  0  0  0
   -3.3164   -0.7765   -0.0434 H   0  0  0  0  0  0  0  0  0  0  0  0
   -2.9578    1.6544    0.1583 H   0  0  0  0  0  0  0  0  0  0  0  0
   -0.4181    3.3507    1.2663 H   0  0  0  0  0  0  0  0  0  0  0  0
   -0.9774    3.3455   -1.7909 H   0  0  0  0  0  0  0  0  0  0  0  0
    1.5665    5.1233   -0.5297 H   0  0  0  0  0  0  0  0  0  0  0  0
    1.7742    7.5925   -0.2351 H   0  0  0  0  0  0  0  0  0  0  0  0
   -2.3774    8.0720   -0.4966 H   0  0  0  0  0  0  0  0  0  0  0  0
   -2.7029    5.6133   -0.7796 H   0  0  0  0  0  0  0  0  0  0  0  0
   -0.9480    9.8917   -0.7385 H   0  0  0  0  0  0  0  0  0  0  0  0
    0.8305    9.6875   -0.6368 H   0  0  0  0  0  0  0  0  0  0  0  0
    0.0743   11.6856    0.8389 H   0  0  0  0  0  0  0  0  0  0  0  0
  1  2  2  0  0  0  0
  1  6  1  0  0  0  0
  1 23  1  0  0  0  0
  2  3  1  0  0  0  0
  2 24  1  0  0  0  0
  3  4  2  0  0  0  0
  3 25  1  0  0  0  0
  4  5  1  0  0  0  0
  4 10  1  0  0  0  0
  5  6  2  0  0  0  0
  5  7  1  0  0  0  0
  6 26  1  0  0  0  0
  7  8  2  0  0  0  0
  7 27  1  0  0  0  0
  8  9  1  0  0  0  0
  8 28  1  0  0  0  0
  9 10  2  0  0  0  0
  9 29  1  0  0  0  0
 10 11  1  0  0  0  0
 11 12  2  0  0  0  0
 11 30  1  0  0  0  0
 12 13  1  0  0  0  0
 12 31  1  0  0  0  0
 13 14  2  0  0  0  0
 13 18  1  0  0  0  0
 14 15  1  0  0  0  0
 14 32  1  0  0  0  0
 15 16  2  0  0  0  0
 15 33  1  0  0  0  0
 16 17  1  0  0  0  0
 16 19  1  0  0  0  0
 17 18  2  0  0  0  0
 17 34  1  0  0  0  0
 18 35  1  0  0  0  0
 19 20  1  0  0  0  0
 19 36  1  0  0  0  0
 19 37  1  0  0  0  0
 20 21  2  0  0  0  0
 20 22  1  0  0  0  0
 22 38  1  0  0  0  0
M  CHG  1  16   1
M  END
