
 OpenBabel10072620173D

 54 55  0  0  0  0  0  0  0  0999 V2000
    0.3875   -3.0289   -3.0575 C   0  0  0  0  0  0  0  0  0  0  0  0
    1.8362   -3.4143   -2.8038 C   0  0  0  0  0  0  0  0  0  0  0  0
    2.6924   -2.2091   -2.4022 C   0  0  0  0  0  0  0  0  0  0  0  0
    4.1491   -2.6312   -2.1435 C   0  0  0  0  0  0  0  0  0  0  0  0
    5.0709   -1.4965   -1.9215 N   0  0  0  0  0  0  0  0  0  0  0  0
    4.7367   -0.7691   -0.6919 C   0  0  0  0  0  0  0  0  0  0  0  0
    6.4739   -1.9569   -1.8462 C   0  0  0  0  0  0  0  0  0  0  0  0
    7.0578   -2.2877   -3.2233 C   0  0  0  0  0  0  0  0  0  0  0  0
    8.4884   -2.8179   -3.1004 C   0  0  0  0  0  0  0  0  0  0  0  0
    9.0074   -3.2820   -4.4033 N   0  0  0  0  0  0  0  0  0  0  0  0
    8.9806   -4.7408   -4.6508 C   0  0  0  0  0  0  0  0  0  0  0  0
    7.6203   -5.3693   -4.5276 C   0  0  0  0  0  0  0  0  0  0  0  0
    6.9700   -5.8174   -3.3895 C   0  0  0  0  0  0  0  0  0  0  0  0
    5.6900   -6.3776   -3.6694 C   0  0  0  0  0  0  0  0  0  0  0  0
    5.4218   -6.3970   -5.0191 C   0  0  0  0  0  0  0  0  0  0  0  0
    6.6995   -5.7258   -5.9317 S   0  0  0  0  0  0  0  0  0  0  0  0
   10.0448   -2.5941   -5.0308 C   0  0  0  0  0  0  0  0  0  0  0  0
   11.3349   -1.8595   -4.2437 S   0  0  0  0  0  0  0  0  0  0  0  0
   10.1091   -2.6349   -6.3957 N   0  0  0  0  0  0  0  0  0  0  0  0
    9.0882   -2.7250   -7.3652 C   0  0  0  0  0  0  0  0  0  0  0  0
    7.7315   -2.5623   -7.0919 C   0  0  0  0  0  0  0  0  0  0  0  0
    6.7861   -2.6513   -8.1203 C   0  0  0  0  0  0  0  0  0  0  0  0
    7.1921   -2.8866   -9.4338 C   0  0  0  0  0  0  0  0  0  0  0  0
    8.5467   -3.0179   -9.7239 C   0  0  0  0  0  0  0  0  0  0  0  0
    9.4787   -2.9268   -8.6943 C   0  0  0  0  0  0  0  0  0  0  0  0
   10.7817   -3.0546   -8.9892 F   0  0  0  0  0  0  0  0  0  0  0  0
   -0.1913   -3.9076   -3.3597 H   0  0  0  0  0  0  0  0  0  0  0  0
    0.3098   -2.2838   -3.8546 H   0  0  0  0  0  0  0  0  0  0  0  0
   -0.0742   -2.6162   -2.1558 H   0  0  0  0  0  0  0  0  0  0  0  0
    2.2446   -3.8747   -3.7101 H   0  0  0  0  0  0  0  0  0  0  0  0
    1.8691   -4.1731   -2.0142 H   0  0  0  0  0  0  0  0  0  0  0  0
    2.2582   -1.7569   -1.5039 H   0  0  0  0  0  0  0  0  0  0  0  0
    2.6584   -1.4563   -3.1991 H   0  0  0  0  0  0  0  0  0  0  0  0
    4.4725   -3.1984   -3.0226 H   0  0  0  0  0  0  0  0  0  0  0  0
    4.1825   -3.3255   -1.2932 H   0  0  0  0  0  0  0  0  0  0  0  0
    3.7365   -0.3283   -0.7448 H   0  0  0  0  0  0  0  0  0  0  0  0
    5.4225    0.0748   -0.5489 H   0  0  0  0  0  0  0  0  0  0  0  0
    4.7939   -1.4134    0.1930 H   0  0  0  0  0  0  0  0  0  0  0  0
    6.5620   -2.8176   -1.1705 H   0  0  0  0  0  0  0  0  0  0  0  0
    7.0982   -1.1587   -1.4217 H   0  0  0  0  0  0  0  0  0  0  0  0
    7.0606   -1.3847   -3.8460 H   0  0  0  0  0  0  0  0  0  0  0  0
    6.4352   -3.0149   -3.7462 H   0  0  0  0  0  0  0  0  0  0  0  0
    8.5628   -3.6318   -2.3715 H   0  0  0  0  0  0  0  0  0  0  0  0
    9.0994   -2.0030   -2.7046 H   0  0  0  0  0  0  0  0  0  0  0  0
    9.6562   -5.1973   -3.9152 H   0  0  0  0  0  0  0  0  0  0  0  0
    9.4234   -4.9742   -5.6262 H   0  0  0  0  0  0  0  0  0  0  0  0
    7.3842   -5.7287   -2.3933 H   0  0  0  0  0  0  0  0  0  0  0  0
    5.0098   -6.7662   -2.9214 H   0  0  0  0  0  0  0  0  0  0  0  0
    4.5410   -6.7799   -5.5155 H   0  0  0  0  0  0  0  0  0  0  0  0
   11.0294   -2.4241   -6.7742 H   0  0  0  0  0  0  0  0  0  0  0  0
    7.3788   -2.3467   -6.0904 H   0  0  0  0  0  0  0  0  0  0  0  0
    5.7293   -2.5378   -7.8888 H   0  0  0  0  0  0  0  0  0  0  0  0
    6.4536   -2.9583  -10.2274 H   0  0  0  0  0  0  0  0  0  0  0  0
    8.8851   -3.1890  -10.7404 H   0  0  0  0  0  0  0  0  0  0  0  0
  1  2  1  0  0  0  0
  1 27  1  0  0  0  0
  1 28  1  0  0  0  0
  1 29  1  0  0  0  0
  2  3  1  0  0  0  0
  2 30  1  0  0  0  0
  2 31  1  0  0  0  0
  3  4  1  0  0  0  0
  3 32  1  0  0  0  0
  3 33  1  0  0  0  0
  4  5  1  0  0  0  0
  4 34  1  0  0  0  0
  4 35  1  0  0  0  0
  5  6  1  0  0  0  0
  5  7  1  0  0  0  0
  6 36  1  0  0  0  0
  6 37  1  0  0  0  0
  6 38  1  0  0  0  0
  7  8  1  0  0  0  0
  7 39  1  0  0  0  0
  7 40  1  0  0  0  0
  8  9  1  0  0  0  0
  8 41  1  0  0  0  0
  8 42  1  0  0  0  0
  9 10  1  0  0  0  0
  9 43  1  0  0  0  0
  9 44  1  0  0  0  0
 10 11  1  0  0  0  0
 10 17  1  0  0  0  0
 11 12  1  0  0  0  0
 11 45  1  0  0  0  0
 11 46  1  0  0  0  0
 12 13  2  0  0  0  0
 12 16  1  0  0  0  0
 13 14  1  0  0  0  0
 13 47  1  0  0  0  0
 14 15  2  0  0  0  0
 14 48  1  0  0  0  0
 15 16  1  0  0  0  0
 15 49  1  0  0  0  0
 17 18  2  0  0  0  0
 17 19  1  0  0  0  0
 19 20  1  0  0  0  0
 19 50  1  0  0  0  0
 20 21  2  0  0  0  0
 20 25  1  0  0  0  0
 21 22  1  0  0  0  0
 21 51  1  0  0  0  0
 22 23  2  0  0  0  0
 22 52  1  0  0  0  0
 23 24  1  0  0  0  0
 23 53  1  0  0  0  0
 24 25  2  0  0  0  0
 24 54  1  0  0  0  0
 25 26  1  0  0  0  0
M  END
