
 OpenBabel10072620203D

 87 90  0  0  1  0  0  0  0  0999 V2000
    1.0191   -0.3361   -0.9420 C   0  0  0  0  0  0  0  0  0  0  0  0
    2.4037    0.0526   -0.4349 C   0  0  2  0  0  0  0  0  0  0  0  0
    2.9931   -1.0560    0.4677 C   0  0  0  0  0  0  0  0  0  0  0  0
    3.8863   -1.8238    0.1440 O   0  0  0  0  0  0  0  0  0  0  0  0
    2.3690   -1.0823    1.6893 N   0  0  0  0  0  0  0  0  0  0  0  0
    2.6964   -1.8981    2.8701 C   0  0  2  0  0  0  0  0  0  0  0  0
    1.3342   -1.8259    3.6131 C   0  0  0  0  0  0  0  0  0  0  0  0
    0.3480   -1.3113    3.0615 O   0  0  0  0  0  0  0  0  0  0  0  0
    1.2493   -2.2066    4.9250 N   0  0  0  0  0  0  0  0  0  0  0  0
    0.1783   -1.6075    5.7415 C   0  0  2  0  0  0  0  0  0  0  0  0
    0.6557   -0.1495    6.0093 C   0  0  0  0  0  0  0  0  0  0  0  0
    1.3792    0.1747    6.9463 O   0  0  0  0  0  0  0  0  0  0  0  0
    0.3559    0.7096    4.9665 N   0  0  0  0  0  0  0  0  0  0  0  0
    1.0616    1.9532    4.7199 C   0  0  0  0  0  0  0  0  0  0  0  0
    0.9793    2.2763    3.2151 C   0  0  0  0  0  0  0  0  0  0  0  0
    0.0131    1.9480    2.5285 O   0  0  0  0  0  0  0  0  0  0  0  0
    2.0839    2.8980    2.6747 N   0  0  0  0  0  0  0  0  0  0  0  0
    2.0861    3.4882    1.3134 C   0  0  1  0  0  0  0  0  0  0  0  0
    1.9083    2.4789    0.1449 C   0  0  0  0  0  0  0  0  0  0  0  0
    1.5848    2.8060   -0.9944 O   0  0  0  0  0  0  0  0  0  0  0  0
    2.3632    1.2264    0.4483 N   0  0  0  0  0  0  0  0  0  0  0  0
    1.1543    4.7040    1.1629 C   0  0  0  0  0  0  0  0  0  0  0  0
    1.5866    5.8695    2.0295 C   0  0  0  0  0  0  0  0  0  0  0  0
    2.8357    6.4831    1.8322 C   0  0  0  0  0  0  0  0  0  0  0  0
    3.2494    7.5337    2.6530 C   0  0  0  0  0  0  0  0  0  0  0  0
    2.4062    7.9865    3.6603 C   0  0  0  0  0  0  0  0  0  0  0  0
    1.1551    7.4115    3.8508 C   0  0  0  0  0  0  0  0  0  0  0  0
    0.7438    6.3554    3.0366 C   0  0  0  0  0  0  0  0  0  0  0  0
    2.7732    9.0013    4.4925 O   0  0  0  0  0  0  0  0  0  0  0  0
   -0.0782   -2.3897    7.0351 C   0  0  0  0  0  0  0  0  0  0  0  0
   -0.6419   -3.7800    6.7928 C   0  0  0  0  0  0  0  0  0  0  0  0
    0.0242   -4.9151    7.2861 C   0  0  0  0  0  0  0  0  0  0  0  0
   -0.4607   -6.2168    7.0342 C   0  0  0  0  0  0  0  0  0  0  0  0
    0.2033   -7.3615    7.5152 C   0  0  0  0  0  0  0  0  0  0  0  0
   -0.2676   -8.6425    7.2112 C   0  0  0  0  0  0  0  0  0  0  0  0
   -1.4127   -8.7973    6.4382 C   0  0  0  0  0  0  0  0  0  0  0  0
   -2.0991   -7.6733    5.9761 C   0  0  0  0  0  0  0  0  0  0  0  0
   -1.6317   -6.3800    6.2681 C   0  0  0  0  0  0  0  0  0  0  0  0
   -2.3130   -5.2466    5.8025 C   0  0  0  0  0  0  0  0  0  0  0  0
   -1.8309   -3.9624    6.0751 C   0  0  0  0  0  0  0  0  0  0  0  0
    3.8910   -1.2268    3.5686 C   0  0  0  0  0  0  0  0  0  0  0  0
    4.5214   -1.9222    4.7725 C   0  0  0  0  0  0  0  0  0  0  0  0
    5.0775   -3.3073    4.4503 C   0  0  0  0  0  0  0  0  0  0  0  0
    5.4786   -3.9303    5.7024 N   0  0  0  0  0  0  0  0  0  0  0  0
    6.2627   -4.9469    5.6667 C   0  0  0  0  0  0  0  0  0  0  0  0
    6.8419   -5.5751    4.6246 N   0  0  0  0  0  0  0  0  0  0  0  0
    6.6262   -5.4966    6.8433 N   0  0  0  0  0  0  0  0  0  0  0  0
    1.0526   -1.2650   -1.5200 H   0  0  0  0  0  0  0  0  0  0  0  0
    0.5990    0.4420   -1.5853 H   0  0  0  0  0  0  0  0  0  0  0  0
    0.3108   -0.4876   -0.1207 H   0  0  0  0  0  0  0  0  0  0  0  0
    3.0872    0.2639   -1.2602 H   0  0  0  0  0  0  0  0  0  0  0  0
    1.4658   -0.6022    1.7294 H   0  0  0  0  0  0  0  0  0  0  0  0
    2.9116   -2.9125    2.5384 H   0  0  0  0  0  0  0  0  0  0  0  0
    2.0161   -2.6608    5.4024 H   0  0  0  0  0  0  0  0  0  0  0  0
   -0.7412   -1.5531    5.1443 H   0  0  0  0  0  0  0  0  0  0  0  0
   -0.0962    0.3009    4.1469 H   0  0  0  0  0  0  0  0  0  0  0  0
    2.1004    1.8233    5.0241 H   0  0  0  0  0  0  0  0  0  0  0  0
    0.5997    2.7578    5.2980 H   0  0  0  0  0  0  0  0  0  0  0  0
    2.7137    3.3414    3.3357 H   0  0  0  0  0  0  0  0  0  0  0  0
    3.1266    3.8193    1.1882 H   0  0  0  0  0  0  0  0  0  0  0  0
    2.6387    1.0836    1.4128 H   0  0  0  0  0  0  0  0  0  0  0  0
    1.1339    5.0527    0.1232 H   0  0  0  0  0  0  0  0  0  0  0  0
    0.1222    4.4165    1.3990 H   0  0  0  0  0  0  0  0  0  0  0  0
    3.4947    6.1549    1.0306 H   0  0  0  0  0  0  0  0  0  0  0  0
    4.2217    7.9851    2.4851 H   0  0  0  0  0  0  0  0  0  0  0  0
    0.4979    7.7916    4.6276 H   0  0  0  0  0  0  0  0  0  0  0  0
   -0.2440    5.9230    3.1875 H   0  0  0  0  0  0  0  0  0  0  0  0
    3.6392    9.3388    4.2106 H   0  0  0  0  0  0  0  0  0  0  0  0
   -0.7890   -1.8379    7.6631 H   0  0  0  0  0  0  0  0  0  0  0  0
    0.8534   -2.4615    7.6110 H   0  0  0  0  0  0  0  0  0  0  0  0
    0.9330   -4.7906    7.8713 H   0  0  0  0  0  0  0  0  0  0  0  0
    1.1041   -7.2636    8.1145 H   0  0  0  0  0  0  0  0  0  0  0  0
    0.2629   -9.5177    7.5794 H   0  0  0  0  0  0  0  0  0  0  0  0
   -1.7806   -9.7915    6.1968 H   0  0  0  0  0  0  0  0  0  0  0  0
   -2.9965   -7.8109    5.3796 H   0  0  0  0  0  0  0  0  0  0  0  0
   -3.2212   -5.3572    5.2155 H   0  0  0  0  0  0  0  0  0  0  0  0
   -2.3924   -3.1123    5.6937 H   0  0  0  0  0  0  0  0  0  0  0  0
    3.5958   -0.2198    3.8807 H   0  0  0  0  0  0  0  0  0  0  0  0
    4.6896   -1.0806    2.8288 H   0  0  0  0  0  0  0  0  0  0  0  0
    3.8176   -1.9856    5.6042 H   0  0  0  0  0  0  0  0  0  0  0  0
    5.3360   -1.2815    5.1429 H   0  0  0  0  0  0  0  0  0  0  0  0
    5.9115   -3.2012    3.7491 H   0  0  0  0  0  0  0  0  0  0  0  0
    4.3097   -3.9244    3.9744 H   0  0  0  0  0  0  0  0  0  0  0  0
    6.4444   -5.4135    3.7066 H   0  0  0  0  0  0  0  0  0  0  0  0
    7.0261   -6.5628    4.7537 H   0  0  0  0  0  0  0  0  0  0  0  0
    6.3787   -4.8496    7.5912 H   0  0  0  0  0  0  0  0  0  0  0  0
    7.6078   -5.7347    6.8768 H   0  0  0  0  0  0  0  0  0  0  0  0
  1  2  1  0  0  0  0
  1 48  1  0  0  0  0
  1 49  1  0  0  0  0
  1 50  1  0  0  0  0
  2  3  1  0  0  0  0
  2 21  1  0  0  0  0
  2 51  1  6  0  0  0
  3  4  2  0  0  0  0
  3  5  1  0  0  0  0
  5  6  1  0  0  0  0
  5 52  1  0  0  0  0
  6  7  1  0  0  0  0
  6 41  1  0  0  0  0
  6 53  1  6  0  0  0
  7  8  2  0  0  0  0
  7  9  1  0  0  0  0
  9 10  1  0  0  0  0
  9 54  1  0  0  0  0
 10 11  1  0  0  0  0
 10 30  1  0  0  0  0
 10 55  1  6  0  0  0
 11 12  2  0  0  0  0
 11 13  1  0  0  0  0
 13 14  1  0  0  0  0
 13 56  1  0  0  0  0
 14 15  1  0  0  0  0
 14 57  1  0  0  0  0
 14 58  1  0  0  0  0
 15 16  2  0  0  0  0
 15 17  1  0  0  0  0
 17 18  1  0  0  0  0
 17 59  1  0  0  0  0
 18 19  1  0  0  0  0
 18 22  1  0  0  0  0
 18 60  1  6  0  0  0
 19 20  2  0  0  0  0
 19 21  1  0  0  0  0
 21 61  1  0  0  0  0
 22 23  1  0  0  0  0
 22 62  1  0  0  0  0
 22 63  1  0  0  0  0
 23 24  2  0  0  0  0
 23 28  1  0  0  0  0
 24 25  1  0  0  0  0
 24 64  1  0  0  0  0
 25 26  2  0  0  0  0
 25 65  1  0  0  0  0
 26 27  1  0  0  0  0
 26 29  1  0  0  0  0
 27 28  2  0  0  0  0
 27 66  1  0  0  0  0
 28 67  1  0  0  0  0
 29 68  1  0  0  0  0
 30 31  1  0  0  0  0
 30 69  1  0  0  0  0
 30 70  1  0  0  0  0
 31 32  2  0  0  0  0
 31 40  1  0  0  0  0
 32 33  1  0  0  0  0
 32 71  1  0  0  0  0
 33 34  2  0  0  0  0
 33 38  1  0  0  0  0
 34 35  1  0  0  0  0
 34 72  1  0  0  0  0
 35 36  2  0  0  0  0
 35 73  1  0  0  0  0
 36 37  1  0  0  0  0
 36 74  1  0  0  0  0
 37 38  2  0  0  0  0
 37 75  1  0  0  0  0
 38 39  1  0  0  0  0
 39 40  2  0  0  0  0
 39 76  1  0  0  0  0
 40 77  1  0  0  0  0
 41 42  1  0  0  0  0
 41 78  1  0  0  0  0
 41 79  1  0  0  0  0
 42 43  1  0  0  0  0
 42 80  1  0  0  0  0
 42 81  1  0  0  0  0
 43 44  1  0  0  0  0
 43 82  1  0  0  0  0
 43 83  1  0  0  0  0
 44 45  2  0  0  0  0
 45 46  1  0  0  0  0
 45 47  1  0  0  0  0
 46 84  1  0  0  0  0
 46 85  1  0  0  0  0
 47 86  1  0  0  0  0
 47 87  1  0  0  0  0
M  END
