
 OpenBabel10072616443D

117120  0  0  1  0  0  0  0  0999 V2000
    7.5475    0.1749    1.6285 C   0  0  0  0  0  0  0  0  0  0  0  0
    8.7472    0.9117    1.0133 C   0  0  0  0  0  0  0  0  0  0  0  0
    9.0466    0.2995   -0.3601 C   0  0  0  0  0  0  0  0  0  0  0  0
    8.4934    2.4320    0.8783 C   0  0  1  0  0  0  0  0  0  0  0  0
    8.0737    3.0725    2.2137 C   0  0  0  0  0  0  0  0  0  0  0  0
    8.9057    3.2198    3.1143 O   0  0  0  0  0  0  0  0  0  0  0  0
    6.8201    3.5475    2.4496 N   0  0  0  0  0  0  0  0  0  0  0  0
    5.5192    3.6766    1.7493 C   0  0  1  0  0  0  0  0  0  0  0  0
    5.5510    3.5064    0.2161 C   0  0  0  0  0  0  0  0  0  0  0  0
    4.3915    3.9583   -0.6443 C   0  0  0  0  0  0  0  0  0  0  0  0
    3.2779    4.6505   -0.1620 C   0  0  0  0  0  0  0  0  0  0  0  0
    2.2564    5.0411   -1.0305 C   0  0  0  0  0  0  0  0  0  0  0  0
    2.3390    4.7475   -2.3910 C   0  0  0  0  0  0  0  0  0  0  0  0
    3.4423    4.0644   -2.8911 C   0  0  0  0  0  0  0  0  0  0  0  0
    4.4642    3.6818   -2.0242 C   0  0  0  0  0  0  0  0  0  0  0  0
    4.4737    2.7508    2.4207 C   0  0  0  0  0  0  0  0  0  0  0  0
    4.0532    3.1984    3.8434 C   0  0  1  0  0  0  0  0  0  0  0  0
    2.8500    2.3648    4.4133 C   0  0  2  0  0  0  0  0  0  0  0  0
    1.5982    2.3377    3.4955 C   0  0  0  0  0  0  0  0  0  0  0  0
    0.8844    3.6362    3.1580 C   0  0  0  0  0  0  0  0  0  0  0  0
    1.0898    4.8609    3.8113 C   0  0  0  0  0  0  0  0  0  0  0  0
    0.3552    5.9978    3.4593 C   0  0  0  0  0  0  0  0  0  0  0  0
   -0.6005    5.9303    2.4517 C   0  0  0  0  0  0  0  0  0  0  0  0
   -0.8309    4.7229    1.8021 C   0  0  0  0  0  0  0  0  0  0  0  0
   -0.0999    3.5870    2.1558 C   0  0  0  0  0  0  0  0  0  0  0  0
    2.4152    2.7625    5.7721 N   0  0  0  0  0  0  0  0  0  0  0  0
    3.0745    2.4633    6.9380 C   0  0  0  0  0  0  0  0  0  0  0  0
    4.2024    1.9729    6.9479 O   0  0  0  0  0  0  0  0  0  0  0  0
    2.2929    2.8026    8.2326 C   0  0  2  0  0  0  0  0  0  0  0  0
    2.0991    4.3245    8.4246 C   0  0  0  0  0  0  0  0  0  0  0  0
    3.4219    5.0830    8.5784 C   0  0  0  0  0  0  0  0  0  0  0  0
    1.2056    4.6088    9.6376 C   0  0  0  0  0  0  0  0  0  0  0  0
    2.9873    2.2079    9.3747 N   0  0  0  0  0  0  0  0  0  0  0  0
    2.4308    1.2739   10.1890 C   0  0  0  0  0  0  0  0  0  0  0  0
    1.3217    0.7713    9.9971 O   0  0  0  0  0  0  0  0  0  0  0  0
    3.1672    0.9152   11.3066 N   0  0  0  0  0  0  0  0  0  0  0  0
    4.4763    1.4816   11.6256 C   0  0  0  0  0  0  0  0  0  0  0  0
    2.4362    0.2954   12.4221 C   0  0  0  0  0  0  0  0  0  0  0  0
    2.1364   -1.1666   12.2027 C   0  0  0  0  0  0  0  0  0  0  0  0
    2.5002   -2.1702   13.1067 C   0  0  0  0  0  0  0  0  0  0  0  0
    2.1921   -3.4993   12.8207 C   0  0  0  0  0  0  0  0  0  0  0  0
    1.5274   -3.8124   11.6381 C   0  0  0  0  0  0  0  0  0  0  0  0
    1.1512   -2.7840   10.7847 C   0  0  0  0  0  0  0  0  0  0  0  0
    1.4483   -1.5145   11.0928 N   0  3  0  0  0  0  0  0  0  0  0  0
    5.2172    3.1001    4.6762 O   0  0  0  0  0  0  0  0  0  0  0  0
    9.5905    3.2426    0.3152 N   0  0  0  0  0  0  0  0  0  0  0  0
   10.9197    3.0649    0.5117 C   0  0  0  0  0  0  0  0  0  0  0  0
   11.4233    2.1304    1.1456 O   0  0  0  0  0  0  0  0  0  0  0  0
   11.7580    3.9524   -0.1395 N   0  0  0  0  0  0  0  0  0  0  0  0
   11.3400    5.2374   -0.6968 C   0  0  0  0  0  0  0  0  0  0  0  0
   13.0808    3.4473   -0.5200 C   0  0  0  0  0  0  0  0  0  0  0  0
   14.0817    3.4629    0.6065 C   0  0  0  0  0  0  0  0  0  0  0  0
   15.3278    4.0869    0.5054 C   0  0  0  0  0  0  0  0  0  0  0  0
   16.2196    4.0104    1.5717 C   0  0  0  0  0  0  0  0  0  0  0  0
   15.8654    3.3055    2.7182 C   0  0  0  0  0  0  0  0  0  0  0  0
   14.6282    2.6770    2.7691 C   0  0  0  0  0  0  0  0  0  0  0  0
   13.7865    2.7766    1.7323 N   0  3  0  0  0  0  0  0  0  0  0  0
    7.7165   -0.9081    1.6055 H   0  0  0  0  0  0  0  0  0  0  0  0
    6.6183    0.3815    1.0855 H   0  0  0  0  0  0  0  0  0  0  0  0
    7.4044    0.4581    2.6775 H   0  0  0  0  0  0  0  0  0  0  0  0
    9.5977    0.7245    1.6795 H   0  0  0  0  0  0  0  0  0  0  0  0
    8.2061    0.4514   -1.0470 H   0  0  0  0  0  0  0  0  0  0  0  0
    9.2245   -0.7771   -0.2754 H   0  0  0  0  0  0  0  0  0  0  0  0
    9.9357    0.7448   -0.8151 H   0  0  0  0  0  0  0  0  0  0  0  0
    7.7206    2.5513    0.1314 H   0  0  0  0  0  0  0  0  0  0  0  0
    6.7347    3.7915    3.4384 H   0  0  0  0  0  0  0  0  0  0  0  0
    5.2325    4.7164    1.9477 H   0  0  0  0  0  0  0  0  0  0  0  0
    5.6980    2.4430   -0.0057 H   0  0  0  0  0  0  0  0  0  0  0  0
    6.4111    4.0711   -0.1616 H   0  0  0  0  0  0  0  0  0  0  0  0
    3.1733    4.8956    0.8901 H   0  0  0  0  0  0  0  0  0  0  0  0
    1.3910    5.5737   -0.6420 H   0  0  0  0  0  0  0  0  0  0  0  0
    1.5393    5.0500   -3.0611 H   0  0  0  0  0  0  0  0  0  0  0  0
    3.5059    3.8251   -3.9507 H   0  0  0  0  0  0  0  0  0  0  0  0
    5.3254    3.1577   -2.4346 H   0  0  0  0  0  0  0  0  0  0  0  0
    4.8906    1.7398    2.4779 H   0  0  0  0  0  0  0  0  0  0  0  0
    3.5905    2.6979    1.7839 H   0  0  0  0  0  0  0  0  0  0  0  0
    3.7943    4.2599    3.8250 H   0  0  0  0  0  0  0  0  0  0  0  0
    3.2043    1.3300    4.5217 H   0  0  0  0  0  0  0  0  0  0  0  0
    1.8508    1.8261    2.5587 H   0  0  0  0  0  0  0  0  0  0  0  0
    0.8492    1.6950    3.9816 H   0  0  0  0  0  0  0  0  0  0  0  0
    1.8159    4.9792    4.6093 H   0  0  0  0  0  0  0  0  0  0  0  0
    0.5246    6.9397    3.9770 H   0  0  0  0  0  0  0  0  0  0  0  0
   -1.1710    6.8146    2.1786 H   0  0  0  0  0  0  0  0  0  0  0  0
   -1.5863    4.6612    1.0225 H   0  0  0  0  0  0  0  0  0  0  0  0
   -0.3135    2.6513    1.6412 H   0  0  0  0  0  0  0  0  0  0  0  0
    1.4630    3.1051    5.8533 H   0  0  0  0  0  0  0  0  0  0  0  0
    1.3062    2.3308    8.1346 H   0  0  0  0  0  0  0  0  0  0  0  0
    1.5896    4.7280    7.5402 H   0  0  0  0  0  0  0  0  0  0  0  0
    3.9584    4.7745    9.4822 H   0  0  0  0  0  0  0  0  0  0  0  0
    3.2384    6.1611    8.6541 H   0  0  0  0  0  0  0  0  0  0  0  0
    4.0771    4.9208    7.7170 H   0  0  0  0  0  0  0  0  0  0  0  0
    1.6672    4.2635   10.5690 H   0  0  0  0  0  0  0  0  0  0  0  0
    0.2370    4.1091    9.5348 H   0  0  0  0  0  0  0  0  0  0  0  0
    1.0206    5.6830    9.7414 H   0  0  0  0  0  0  0  0  0  0  0  0
    3.9953    2.2612    9.3106 H   0  0  0  0  0  0  0  0  0  0  0  0
    5.1005    1.5457   10.7303 H   0  0  0  0  0  0  0  0  0  0  0  0
    4.9909    0.8360   12.3442 H   0  0  0  0  0  0  0  0  0  0  0  0
    4.3325    2.4825   12.0449 H   0  0  0  0  0  0  0  0  0  0  0  0
    1.4849    0.8241   12.5596 H   0  0  0  0  0  0  0  0  0  0  0  0
    3.0108    0.4292   13.3459 H   0  0  0  0  0  0  0  0  0  0  0  0
    3.0223   -1.9304   14.0329 H   0  0  0  0  0  0  0  0  0  0  0  0
    2.4695   -4.2918   13.5161 H   0  0  0  0  0  0  0  0  0  0  0  0
    1.2976   -4.8477   11.3938 H   0  0  0  0  0  0  0  0  0  0  0  0
    0.6165   -2.9472    9.8545 H   0  0  0  0  0  0  0  0  0  0  0  0
    1.1568   -0.7530   10.4592 H   0  0  0  0  0  0  0  0  0  0  0  0
    4.9805    2.6273    5.5036 H   0  0  0  0  0  0  0  0  0  0  0  0
    9.2957    4.1530    0.0070 H   0  0  0  0  0  0  0  0  0  0  0  0
   10.5754    5.6946   -0.0624 H   0  0  0  0  0  0  0  0  0  0  0  0
   10.9337    5.0791   -1.6994 H   0  0  0  0  0  0  0  0  0  0  0  0
   12.1923    5.9221   -0.7412 H   0  0  0  0  0  0  0  0  0  0  0  0
   13.4469    4.0038   -1.3902 H   0  0  0  0  0  0  0  0  0  0  0  0
   12.9726    2.4017   -0.8402 H   0  0  0  0  0  0  0  0  0  0  0  0
   15.6142    4.6201   -0.3999 H   0  0  0  0  0  0  0  0  0  0  0  0
   17.1955    4.4898    1.5052 H   0  0  0  0  0  0  0  0  0  0  0  0
   16.5558    3.2362    3.5554 H   0  0  0  0  0  0  0  0  0  0  0  0
   14.2931    2.0868    3.6151 H   0  0  0  0  0  0  0  0  0  0  0  0
   12.8613    2.3144    1.7802 H   0  0  0  0  0  0  0  0  0  0  0  0
  1  2  1  0  0  0  0
  1 58  1  0  0  0  0
  1 59  1  0  0  0  0
  1 60  1  0  0  0  0
  2  3  1  0  0  0  0
  2  4  1  0  0  0  0
  2 61  1  0  0  0  0
  3 62  1  0  0  0  0
  3 63  1  0  0  0  0
  3 64  1  0  0  0  0
  4  5  1  0  0  0  0
  4 46  1  0  0  0  0
  4 65  1  6  0  0  0
  5  6  2  0  0  0  0
  5  7  1  0  0  0  0
  7  8  1  0  0  0  0
  7 66  1  0  0  0  0
  8  9  1  0  0  0  0
  8 16  1  0  0  0  0
  8 67  1  1  0  0  0
  9 10  1  0  0  0  0
  9 68  1  0  0  0  0
  9 69  1  0  0  0  0
 10 11  2  0  0  0  0
 10 15  1  0  0  0  0
 11 12  1  0  0  0  0
 11 70  1  0  0  0  0
 12 13  2  0  0  0  0
 12 71  1  0  0  0  0
 13 14  1  0  0  0  0
 13 72  1  0  0  0  0
 14 15  2  0  0  0  0
 14 73  1  0  0  0  0
 15 74  1  0  0  0  0
 16 17  1  0  0  0  0
 16 75  1  0  0  0  0
 16 76  1  0  0  0  0
 17 45  1  0  0  0  0
 17 77  1  6  0  0  0
 18 26  1  0  0  0  0
 18 19  1  0  0  0  0
 18 17  1  0  0  0  0
 18 78  1  1  0  0  0
 19 20  1  0  0  0  0
 19 79  1  0  0  0  0
 19 80  1  0  0  0  0
 20 21  2  0  0  0  0
 20 25  1  0  0  0  0
 21 22  1  0  0  0  0
 21 81  1  0  0  0  0
 22 23  2  0  0  0  0
 22 82  1  0  0  0  0
 23 24  1  0  0  0  0
 23 83  1  0  0  0  0
 24 25  2  0  0  0  0
 24 84  1  0  0  0  0
 25 85  1  0  0  0  0
 26 27  1  0  0  0  0
 26 86  1  0  0  0  0
 27 28  2  0  0  0  0
 29 33  1  0  0  0  0
 29 30  1  0  0  0  0
 29 27  1  0  0  0  0
 29 87  1  6  0  0  0
 30 31  1  0  0  0  0
 30 32  1  0  0  0  0
 30 88  1  0  0  0  0
 31 89  1  0  0  0  0
 31 90  1  0  0  0  0
 31 91  1  0  0  0  0
 32 92  1  0  0  0  0
 32 93  1  0  0  0  0
 32 94  1  0  0  0  0
 33 34  1  0  0  0  0
 33 95  1  0  0  0  0
 34 35  2  0  0  0  0
 34 36  1  0  0  0  0
 36 37  1  0  0  0  0
 36 38  1  0  0  0  0
 37 96  1  0  0  0  0
 37 97  1  0  0  0  0
 37 98  1  0  0  0  0
 38 39  1  0  0  0  0
 38 99  1  0  0  0  0
 38100  1  0  0  0  0
 39 40  2  0  0  0  0
 39 44  1  0  0  0  0
 40 41  1  0  0  0  0
 40101  1  0  0  0  0
 41 42  2  0  0  0  0
 41102  1  0  0  0  0
 42 43  1  0  0  0  0
 42103  1  0  0  0  0
 43 44  2  0  0  0  0
 43104  1  0  0  0  0
 44105  1  0  0  0  0
 45106  1  0  0  0  0
 46 47  1  0  0  0  0
 46107  1  0  0  0  0
 47 48  2  0  0  0  0
 47 49  1  0  0  0  0
 49 50  1  0  0  0  0
 49 51  1  0  0  0  0
 50108  1  0  0  0  0
 50109  1  0  0  0  0
 50110  1  0  0  0  0
 51 52  1  0  0  0  0
 51111  1  0  0  0  0
 51112  1  0  0  0  0
 52 53  2  0  0  0  0
 52 57  1  0  0  0  0
 53 54  1  0  0  0  0
 53113  1  0  0  0  0
 54 55  2  0  0  0  0
 54114  1  0  0  0  0
 55 56  1  0  0  0  0
 55115  1  0  0  0  0
 56 57  2  0  0  0  0
 56116  1  0  0  0  0
 57117  1  0  0  0  0
M  CHG  2  44   1  57   1
M  END
