
 OpenBabel10072620093D

 32 31  0  0  0  0  0  0  0  0999 V2000
    1.3391   -0.3476   -0.9785 C   0  0  0  0  0  0  0  0  0  0  0  0
    2.6808   -0.2011   -0.3290 C   0  0  0  0  0  0  0  0  0  0  0  0
    3.2746    0.9557   -0.3058 N   0  0  0  0  0  0  0  0  0  0  0  0
    4.5007    1.0424    0.3054 N   0  0  0  0  0  0  0  0  0  0  0  0
    5.2486    2.1899    0.2836 C   0  0  0  0  0  0  0  0  0  0  0  0
    4.7952    3.6325   -0.4314 S   0  0  0  0  0  0  0  0  0  0  0  0
    6.4623    2.1558    0.9034 N   0  0  0  0  0  0  0  0  0  0  0  0
    7.1609    1.0789    1.5789 C   0  0  0  0  0  0  0  0  0  0  0  0
    3.2859   -1.4509    0.2667 C   0  0  0  0  0  0  0  0  0  0  0  0
    4.4276   -1.9359   -0.1136 N   0  0  0  0  0  0  0  0  0  0  0  0
    5.0964   -1.3068   -1.1381 N   0  0  0  0  0  0  0  0  0  0  0  0
    6.4002   -1.6016   -1.4431 C   0  0  0  0  0  0  0  0  0  0  0  0
    7.3326   -2.7758   -0.7010 S   0  0  0  0  0  0  0  0  0  0  0  0
    6.9880   -0.8697   -2.4344 N   0  0  0  0  0  0  0  0  0  0  0  0
    6.4261    0.1189   -3.3350 C   0  0  0  0  0  0  0  0  0  0  0  0
    2.5084   -2.1040    1.3706 C   0  0  0  0  0  0  0  0  0  0  0  0
    1.1760    0.4705   -1.6865 H   0  0  0  0  0  0  0  0  0  0  0  0
    0.5618   -0.3178   -0.2114 H   0  0  0  0  0  0  0  0  0  0  0  0
    1.2839   -1.2982   -1.5159 H   0  0  0  0  0  0  0  0  0  0  0  0
    4.9436    0.1848    0.6227 H   0  0  0  0  0  0  0  0  0  0  0  0
    6.9402    3.0498    0.8802 H   0  0  0  0  0  0  0  0  0  0  0  0
    6.6388    0.1248    1.5246 H   0  0  0  0  0  0  0  0  0  0  0  0
    7.2890    1.3655    2.6261 H   0  0  0  0  0  0  0  0  0  0  0  0
    8.1465    0.9824    1.1153 H   0  0  0  0  0  0  0  0  0  0  0  0
    4.6980   -0.4546   -1.5228 H   0  0  0  0  0  0  0  0  0  0  0  0
    7.9344   -1.1682   -2.6388 H   0  0  0  0  0  0  0  0  0  0  0  0
    5.4947    0.5500   -2.9693 H   0  0  0  0  0  0  0  0  0  0  0  0
    6.2496   -0.3704   -4.2965 H   0  0  0  0  0  0  0  0  0  0  0  0
    7.1675    0.9117   -3.4692 H   0  0  0  0  0  0  0  0  0  0  0  0
    2.2380   -1.3589    2.1233 H   0  0  0  0  0  0  0  0  0  0  0  0
    3.1116   -2.8830    1.8446 H   0  0  0  0  0  0  0  0  0  0  0  0
    1.5999   -2.5535    0.9634 H   0  0  0  0  0  0  0  0  0  0  0  0
  1  2  1  0  0  0  0
  1 17  1  0  0  0  0
  1 18  1  0  0  0  0
  1 19  1  0  0  0  0
  2  3  2  0  0  0  0
  2  9  1  0  0  0  0
  3  4  1  0  0  0  0
  4  5  1  0  0  0  0
  4 20  1  0  0  0  0
  5  6  2  0  0  0  0
  5  7  1  0  0  0  0
  7  8  1  0  0  0  0
  7 21  1  0  0  0  0
  8 22  1  0  0  0  0
  8 23  1  0  0  0  0
  8 24  1  0  0  0  0
  9 10  2  0  0  0  0
  9 16  1  0  0  0  0
 10 11  1  0  0  0  0
 11 12  1  0  0  0  0
 11 25  1  0  0  0  0
 12 13  2  0  0  0  0
 12 14  1  0  0  0  0
 14 15  1  0  0  0  0
 14 26  1  0  0  0  0
 15 27  1  0  0  0  0
 15 28  1  0  0  0  0
 15 29  1  0  0  0  0
 16 30  1  0  0  0  0
 16 31  1  0  0  0  0
 16 32  1  0  0  0  0
M  END
