
 OpenBabel10072616313D

 32 33  0  0  0  0  0  0  0  0999 V2000
    1.1391    0.4043    0.1161 C   0  0  0  0  0  0  0  0  0  0  0  0
    2.5681   -0.0706   -0.0533 C   0  0  0  0  0  0  0  0  0  0  0  0
    3.0253   -0.7168    1.2018 N   0  3  0  0  0  0  0  0  0  0  0  0
    3.6215    0.0321    2.1583 C   0  0  0  0  0  0  0  0  0  0  0  0
    4.0538   -0.5500    3.3405 C   0  0  0  0  0  0  0  0  0  0  0  0
    3.8764   -1.9201    3.5399 C   0  0  0  0  0  0  0  0  0  0  0  0
    3.2532   -2.6759    2.5504 C   0  0  0  0  0  0  0  0  0  0  0  0
    2.8355   -2.0456    1.3818 C   0  0  0  0  0  0  0  0  0  0  0  0
    4.2980   -2.4903    4.8458 C   0  0  0  0  0  0  0  0  0  0  0  0
    4.2830   -1.7418    5.8169 O   0  0  0  0  0  0  0  0  0  0  0  0
    4.6951   -3.8173    4.8440 N   0  0  0  0  0  0  0  0  0  0  0  0
    5.0899   -4.3809    6.0241 N   0  0  0  0  0  0  0  0  0  0  0  0
    5.5137   -5.6039    5.9695 C   0  0  0  0  0  0  0  0  0  0  0  0
    5.9535   -6.2880    7.1491 C   0  0  0  0  0  0  0  0  0  0  0  0
    6.0413   -5.9029    8.4720 C   0  0  0  0  0  0  0  0  0  0  0  0
    6.5532   -7.0146    9.1829 C   0  0  0  0  0  0  0  0  0  0  0  0
    6.7457   -8.0080    8.2521 C   0  0  0  0  0  0  0  0  0  0  0  0
    6.3851   -7.5778    7.0150 O   0  0  0  0  0  0  0  0  0  0  0  0
    0.7851    0.8798   -0.8035 H   0  0  0  0  0  0  0  0  0  0  0  0
    1.0594    1.1317    0.9303 H   0  0  0  0  0  0  0  0  0  0  0  0
    0.4709   -0.4309    0.3493 H   0  0  0  0  0  0  0  0  0  0  0  0
    3.2453    0.7612   -0.2741 H   0  0  0  0  0  0  0  0  0  0  0  0
    2.6557   -0.8026   -0.8631 H   0  0  0  0  0  0  0  0  0  0  0  0
    3.7367    1.0967    1.9716 H   0  0  0  0  0  0  0  0  0  0  0  0
    4.5171    0.0650    4.1121 H   0  0  0  0  0  0  0  0  0  0  0  0
    3.0457   -3.7339    2.6874 H   0  0  0  0  0  0  0  0  0  0  0  0
    2.3310   -2.5916    0.5885 H   0  0  0  0  0  0  0  0  0  0  0  0
    4.8016   -4.3546    3.9928 H   0  0  0  0  0  0  0  0  0  0  0  0
    5.5545   -6.1682    5.0214 H   0  0  0  0  0  0  0  0  0  0  0  0
    5.7667   -4.9334    8.8670 H   0  0  0  0  0  0  0  0  0  0  0  0
    6.7570   -7.0840   10.2427 H   0  0  0  0  0  0  0  0  0  0  0  0
    7.1128   -9.0239    8.3072 H   0  0  0  0  0  0  0  0  0  0  0  0
  1  2  1  0  0  0  0
  1 19  1  0  0  0  0
  1 20  1  0  0  0  0
  1 21  1  0  0  0  0
  2  3  1  0  0  0  0
  2 22  1  0  0  0  0
  2 23  1  0  0  0  0
  3  4  2  0  0  0  0
  3  8  1  0  0  0  0
  4  5  1  0  0  0  0
  4 24  1  0  0  0  0
  5  6  2  0  0  0  0
  5 25  1  0  0  0  0
  6  7  1  0  0  0  0
  6  9  1  0  0  0  0
  7  8  2  0  0  0  0
  7 26  1  0  0  0  0
  8 27  1  0  0  0  0
  9 10  2  0  0  0  0
  9 11  1  0  0  0  0
 11 12  1  0  0  0  0
 11 28  1  0  0  0  0
 12 13  2  0  0  0  0
 13 14  1  0  0  0  0
 13 29  1  0  0  0  0
 14 15  2  0  0  0  0
 14 18  1  0  0  0  0
 15 16  1  0  0  0  0
 15 30  1  0  0  0  0
 16 17  2  0  0  0  0
 16 31  1  0  0  0  0
 17 18  1  0  0  0  0
 17 32  1  0  0  0  0
M  CHG  1   3   1
M  END
