
 OpenBabel10072616323D

 39 41  0  0  0  0  0  0  0  0999 V2000
    2.8062    0.3647    0.0850 C   0  0  0  0  0  0  0  0  0  0  0  0
    1.5055   -0.3687    0.2314 C   0  0  0  0  0  0  0  0  0  0  0  0
    1.2792   -1.2289    1.3139 C   0  0  0  0  0  0  0  0  0  0  0  0
    0.0651   -1.9255    1.4520 C   0  0  0  0  0  0  0  0  0  0  0  0
   -0.9330   -1.7398    0.4811 C   0  0  0  0  0  0  0  0  0  0  0  0
   -0.7092   -0.8850   -0.6011 C   0  0  0  0  0  0  0  0  0  0  0  0
    0.5008   -0.2021   -0.7251 C   0  0  0  0  0  0  0  0  0  0  0  0
   -2.1850   -2.4425    0.5478 N   0  0  0  0  0  0  0  0  0  0  0  0
   -2.3168   -3.7663   -0.5199 S   0  0  0  0  0  0  0  0  0  0  0  0
   -2.1717   -3.3255   -1.8892 O   0  0  0  0  0  0  0  0  0  0  0  0
   -1.5217   -4.8427    0.0326 O   0  0  0  0  0  0  0  0  0  0  0  0
   -4.0276   -4.1905   -0.2884 C   0  0  0  0  0  0  0  0  0  0  0  0
   -5.0080   -3.3036   -0.7442 C   0  0  0  0  0  0  0  0  0  0  0  0
   -6.3504   -3.6207   -0.5557 C   0  0  0  0  0  0  0  0  0  0  0  0
   -6.7099   -4.8315    0.0494 C   0  0  0  0  0  0  0  0  0  0  0  0
   -5.7261   -5.7094    0.5058 C   0  0  0  0  0  0  0  0  0  0  0  0
   -4.3772   -5.3926    0.3355 C   0  0  0  0  0  0  0  0  0  0  0  0
   -8.0124   -5.2199    0.2338 O   0  0  0  0  0  0  0  0  0  0  0  0
   -8.9069   -4.4409   -0.5696 C   0  0  0  0  0  0  0  0  0  0  0  0
   -8.5707   -2.9626   -0.4640 C   0  0  0  0  0  0  0  0  0  0  0  0
   -7.2667   -2.7004   -0.9958 O   0  0  0  0  0  0  0  0  0  0  0  0
   -0.1161   -2.8435    2.6278 C   0  0  0  0  0  0  0  0  0  0  0  0
    3.4995    0.1214    0.8968 H   0  0  0  0  0  0  0  0  0  0  0  0
    2.6335    1.4455    0.1031 H   0  0  0  0  0  0  0  0  0  0  0  0
    3.2884    0.0925   -0.8595 H   0  0  0  0  0  0  0  0  0  0  0  0
    2.0630   -1.3636    2.0578 H   0  0  0  0  0  0  0  0  0  0  0  0
   -1.4763   -0.7471   -1.3594 H   0  0  0  0  0  0  0  0  0  0  0  0
    0.6554    0.4544   -1.5783 H   0  0  0  0  0  0  0  0  0  0  0  0
   -2.4001   -2.7635    1.4906 H   0  0  0  0  0  0  0  0  0  0  0  0
   -4.7321   -2.3721   -1.2323 H   0  0  0  0  0  0  0  0  0  0  0  0
   -6.0120   -6.6453    0.9791 H   0  0  0  0  0  0  0  0  0  0  0  0
   -3.6149   -6.0883    0.6801 H   0  0  0  0  0  0  0  0  0  0  0  0
   -9.9233   -4.6253   -0.2075 H   0  0  0  0  0  0  0  0  0  0  0  0
   -8.8431   -4.7950   -1.6061 H   0  0  0  0  0  0  0  0  0  0  0  0
   -8.5975   -2.6185    0.5775 H   0  0  0  0  0  0  0  0  0  0  0  0
   -9.2887   -2.3689   -1.0384 H   0  0  0  0  0  0  0  0  0  0  0  0
    0.7640   -2.8422    3.2799 H   0  0  0  0  0  0  0  0  0  0  0  0
   -0.2721   -3.8724    2.2913 H   0  0  0  0  0  0  0  0  0  0  0  0
   -0.9699   -2.5222    3.2328 H   0  0  0  0  0  0  0  0  0  0  0  0
  1  2  1  0  0  0  0
  1 23  1  0  0  0  0
  1 24  1  0  0  0  0
  1 25  1  0  0  0  0
  2  3  2  0  0  0  0
  2  7  1  0  0  0  0
  3  4  1  0  0  0  0
  3 26  1  0  0  0  0
  4  5  2  0  0  0  0
  4 22  1  0  0  0  0
  5  6  1  0  0  0  0
  5  8  1  0  0  0  0
  6  7  2  0  0  0  0
  6 27  1  0  0  0  0
  7 28  1  0  0  0  0
  8  9  1  0  0  0  0
  8 29  1  0  0  0  0
  9 10  2  0  0  0  0
  9 11  2  0  0  0  0
  9 12  1  0  0  0  0
 12 13  2  0  0  0  0
 12 17  1  0  0  0  0
 13 14  1  0  0  0  0
 13 30  1  0  0  0  0
 14 15  2  0  0  0  0
 14 21  1  0  0  0  0
 15 16  1  0  0  0  0
 15 18  1  0  0  0  0
 16 17  2  0  0  0  0
 16 31  1  0  0  0  0
 17 32  1  0  0  0  0
 18 19  1  0  0  0  0
 19 20  1  0  0  0  0
 19 33  1  0  0  0  0
 19 34  1  0  0  0  0
 20 21  1  0  0  0  0
 20 35  1  0  0  0  0
 20 36  1  0  0  0  0
 22 37  1  0  0  0  0
 22 38  1  0  0  0  0
 22 39  1  0  0  0  0
M  END
