
 OpenBabel10072620163D

 35 34  0  0  0  0  0  0  0  0999 V2000
    1.5604    0.2713    0.5810 C   0  0  0  0  0  0  0  0  0  0  0  0
    2.6438   -0.2930   -0.2551 N   0  0  0  0  0  0  0  0  0  0  0  0
    2.5982   -1.7805   -0.3061 C   0  0  0  0  0  0  0  0  0  0  0  0
    3.9979   -2.3941   -0.2211 C   0  0  0  0  0  0  0  0  0  0  0  0
    4.8517   -1.7955    0.8981 C   0  0  0  0  0  0  0  0  0  0  0  0
    6.2135   -2.4696    0.9890 C   0  0  0  0  0  0  0  0  0  0  0  0
    6.9951   -1.8341    1.9929 O   0  0  0  0  0  0  0  0  0  0  0  0
    2.9259    0.5165   -1.7387 S   0  0  0  0  0  0  0  0  0  0  0  0
    3.9423   -0.2331   -2.4469 O   0  0  0  0  0  0  0  0  0  0  0  0
    1.6262    0.7200   -2.3463 O   0  0  0  0  0  0  0  0  0  0  0  0
    3.6161    2.1295   -1.2139 C   0  0  0  0  0  0  0  0  0  0  0  0
    4.4260    2.7579   -2.3275 C   0  0  0  0  0  0  0  0  0  0  0  0
    3.7219    3.0451   -3.6376 C   0  0  0  0  0  0  0  0  0  0  0  0
    2.5694    4.0220   -3.4871 C   0  0  0  0  0  0  0  0  0  0  0  0
    2.9452    5.1630   -2.8684 F   0  0  0  0  0  0  0  0  0  0  0  0
    2.0497    4.3694   -4.6880 F   0  0  0  0  0  0  0  0  0  0  0  0
    1.5574    3.4953   -2.7648 F   0  0  0  0  0  0  0  0  0  0  0  0
    4.6391    3.5751   -4.5099 F   0  0  0  0  0  0  0  0  0  0  0  0
    3.3020    1.8933   -4.2225 F   0  0  0  0  0  0  0  0  0  0  0  0
    4.9484    3.9391   -1.8545 F   0  0  0  0  0  0  0  0  0  0  0  0
    5.5316    1.9881   -2.5744 F   0  0  0  0  0  0  0  0  0  0  0  0
    2.6372    2.9887   -0.7983 F   0  0  0  0  0  0  0  0  0  0  0  0
    4.4208    1.9722   -0.1104 F   0  0  0  0  0  0  0  0  0  0  0  0
    1.6574   -0.1038    1.6052 H   0  0  0  0  0  0  0  0  0  0  0  0
    0.5800   -0.0153    0.1893 H   0  0  0  0  0  0  0  0  0  0  0  0
    1.6263    1.3597    0.6353 H   0  0  0  0  0  0  0  0  0  0  0  0
    2.0765   -2.1158   -1.2101 H   0  0  0  0  0  0  0  0  0  0  0  0
    2.0126   -2.1589    0.5414 H   0  0  0  0  0  0  0  0  0  0  0  0
    4.5202   -2.2806   -1.1767 H   0  0  0  0  0  0  0  0  0  0  0  0
    3.8913   -3.4752   -0.0652 H   0  0  0  0  0  0  0  0  0  0  0  0
    4.3325   -1.8825    1.8611 H   0  0  0  0  0  0  0  0  0  0  0  0
    5.0053   -0.7221    0.7317 H   0  0  0  0  0  0  0  0  0  0  0  0
    6.7549   -2.4132    0.0390 H   0  0  0  0  0  0  0  0  0  0  0  0
    6.1078   -3.5232    1.2613 H   0  0  0  0  0  0  0  0  0  0  0  0
    7.1902   -0.9350    1.6815 H   0  0  0  0  0  0  0  0  0  0  0  0
  1  2  1  0  0  0  0
  1 24  1  0  0  0  0
  1 25  1  0  0  0  0
  1 26  1  0  0  0  0
  2  3  1  0  0  0  0
  2  8  1  0  0  0  0
  3  4  1  0  0  0  0
  3 27  1  0  0  0  0
  3 28  1  0  0  0  0
  4  5  1  0  0  0  0
  4 29  1  0  0  0  0
  4 30  1  0  0  0  0
  5  6  1  0  0  0  0
  5 31  1  0  0  0  0
  5 32  1  0  0  0  0
  6  7  1  0  0  0  0
  6 33  1  0  0  0  0
  6 34  1  0  0  0  0
  7 35  1  0  0  0  0
  8  9  2  0  0  0  0
  8 10  2  0  0  0  0
  8 11  1  0  0  0  0
 11 12  1  0  0  0  0
 11 22  1  0  0  0  0
 11 23  1  0  0  0  0
 12 13  1  0  0  0  0
 12 20  1  0  0  0  0
 12 21  1  0  0  0  0
 13 14  1  0  0  0  0
 13 18  1  0  0  0  0
 13 19  1  0  0  0  0
 14 15  1  0  0  0  0
 14 16  1  0  0  0  0
 14 17  1  0  0  0  0
M  END
