
 OpenBabel10072616423D

102106  0  0  1  0  0  0  0  0999 V2000
   -0.6157    4.7683   -4.5493 C   0  0  0  0  0  0  0  0  0  0  0  0
   -0.3675    6.2023   -5.0258 C   0  0  0  0  0  0  0  0  0  0  0  0
    1.0845    6.7941   -4.9923 C   0  0  0  0  0  0  0  0  0  0  0  0
    1.6466    7.0762   -3.6503 N   0  0  0  0  0  0  0  0  0  0  0  0
    2.8465    7.5273   -3.4662 C   0  0  0  0  0  0  0  0  0  0  0  0
    3.5487    7.3445   -2.2276 N   0  0  0  0  0  0  0  0  0  0  0  0
    2.9795    6.2911   -1.3704 C   0  0  0  0  0  0  0  0  0  0  0  0
    3.6801    5.4973   -0.1459 C   0  0  0  0  0  0  0  0  0  0  0  0
    3.0645    4.6890    1.3748 C   0  0  0  0  0  0  0  0  0  0  0  0
    1.8096    3.5514    1.5590 C   0  0  0  0  0  0  0  0  0  0  0  0
    2.2910    2.8031    0.3796 C   0  0  0  0  0  0  0  0  0  0  0  0
    0.5720    4.3161    1.9809 C   0  0  0  0  0  0  0  0  0  0  0  0
    1.2366    2.2056    2.3459 C   0  0  0  0  0  0  0  0  0  0  0  0
   -0.2178    1.7551    1.5589 N   0  0  0  0  0  0  0  0  0  0  0  0
   -0.1150    0.5634    0.5752 C   0  0  0  0  0  0  0  0  0  0  0  0
   -0.4025    0.8544   -0.9492 C   0  0  2  0  0  0  0  0  0  0  0  0
    0.3665    1.9831   -1.7082 C   0  0  2  0  0  0  0  0  0  0  0  0
    1.8585    1.5080   -1.9676 C   0  0  0  0  0  0  0  0  0  0  0  0
    2.0333    0.4140   -2.9868 C   0  0  0  0  0  0  0  0  0  0  0  0
    1.8509    0.7179   -4.3307 C   0  0  0  0  0  0  0  0  0  0  0  0
    1.9037   -0.2952   -5.2799 C   0  0  0  0  0  0  0  0  0  0  0  0
    2.1752   -1.6081   -4.8936 C   0  0  0  0  0  0  0  0  0  0  0  0
    2.4454   -1.9074   -3.5607 C   0  0  0  0  0  0  0  0  0  0  0  0
    2.3842   -0.8957   -2.6058 C   0  0  0  0  0  0  0  0  0  0  0  0
    0.0319    3.3039   -0.9626 N   0  0  0  0  0  0  0  0  0  0  0  0
    0.4523    4.6109   -1.1810 C   0  0  0  0  0  0  0  0  0  0  0  0
    1.0616    4.8124   -2.2109 O   0  0  0  0  0  0  0  0  0  0  0  0
    0.2394    5.4953   -0.0951 O   0  0  0  0  0  0  0  0  0  0  0  0
    0.7867    6.8287    0.5163 C   0  0  1  0  0  0  0  0  0  0  0  0
    0.0587    8.0143   -0.0384 C   0  0  0  0  0  0  0  0  0  0  0  0
    0.6337    9.2074    0.5082 O   0  0  0  0  0  0  0  0  0  0  0  0
    1.3606    8.9117    1.6939 C   0  0  2  0  0  0  0  0  0  0  0  0
    1.2951    7.4077    1.9131 C   0  0  1  0  0  0  0  0  0  0  0  0
    0.6064    7.2504    3.2421 C   0  0  0  0  0  0  0  0  0  0  0  0
    0.7066    8.6031    3.9006 C   0  0  0  0  0  0  0  0  0  0  0  0
    0.8414    9.5598    2.8537 O   0  0  0  0  0  0  0  0  0  0  0  0
   -1.7809    1.1496   -1.1192 O   0  0  0  0  0  0  0  0  0  0  0  0
   -1.7505    1.8143    2.4717 S   0  0  0  0  0  0  0  0  0  0  0  0
   -1.6078    2.6627    3.6268 O   0  0  0  0  0  0  0  0  0  0  0  0
   -2.2551    0.4527    2.6086 O   0  0  0  0  0  0  0  0  0  0  0  0
   -2.8600    2.6818    1.3231 C   0  0  0  0  0  0  0  0  0  0  0  0
   -2.6986    4.0591    1.1252 C   0  0  0  0  0  0  0  0  0  0  0  0
   -3.1354    4.5805   -0.0777 C   0  0  0  0  0  0  0  0  0  0  0  0
   -3.8424    3.8261   -0.9811 C   0  0  0  0  0  0  0  0  0  0  0  0
   -4.2318    2.5357   -0.6870 C   0  0  0  0  0  0  0  0  0  0  0  0
   -3.7353    1.9526    0.4945 C   0  0  0  0  0  0  0  0  0  0  0  0
   -4.0010    4.4568   -2.1752 O   0  0  0  0  0  0  0  0  0  0  0  0
   -3.2957    5.6923   -1.9303 C   0  0  0  0  0  0  0  0  0  0  0  0
   -2.8176    5.8096   -0.5714 O   0  0  0  0  0  0  0  0  0  0  0  0
    3.6860    8.1024   -4.4047 N   0  0  0  0  0  0  0  0  0  0  0  0
    5.1000    8.0626   -4.0268 C   0  0  0  0  0  0  0  0  0  0  0  0
    6.1528    8.0527   -3.5719 N   0  0  0  0  0  0  0  0  0  0  0  0
   -0.6905    4.7163   -3.4704 H   0  0  0  0  0  0  0  0  0  0  0  0
   -1.5945    4.4045   -4.8908 H   0  0  0  0  0  0  0  0  0  0  0  0
    0.1395    4.0615   -4.9032 H   0  0  0  0  0  0  0  0  0  0  0  0
   -1.0779    6.8639   -4.5181 H   0  0  0  0  0  0  0  0  0  0  0  0
   -0.6717    6.1851   -6.0828 H   0  0  0  0  0  0  0  0  0  0  0  0
    1.0702    7.6995   -5.6064 H   0  0  0  0  0  0  0  0  0  0  0  0
    1.7331    6.0575   -5.4731 H   0  0  0  0  0  0  0  0  0  0  0  0
    3.7585    8.2189   -1.7620 H   0  0  0  0  0  0  0  0  0  0  0  0
    2.1325    6.8960   -1.1835 H   0  0  0  0  0  0  0  0  0  0  0  0
    2.8325    5.5210   -2.0846 H   0  0  0  0  0  0  0  0  0  0  0  0
    4.1295    4.6463   -0.6761 H   0  0  0  0  0  0  0  0  0  0  0  0
    4.5230    6.1100    0.1821 H   0  0  0  0  0  0  0  0  0  0  0  0
    3.9644    4.1509    1.6859 H   0  0  0  0  0  0  0  0  0  0  0  0
    2.9679    5.4600    2.1291 H   0  0  0  0  0  0  0  0  0  0  0  0
    2.4646    3.4062   -0.4992 H   0  0  0  0  0  0  0  0  0  0  0  0
    3.2141    2.2496    0.5923 H   0  0  0  0  0  0  0  0  0  0  0  0
    1.5883    2.0429    0.1736 H   0  0  0  0  0  0  0  0  0  0  0  0
    0.0743    4.0132    2.8986 H   0  0  0  0  0  0  0  0  0  0  0  0
   -0.2599    4.3002    1.3147 H   0  0  0  0  0  0  0  0  0  0  0  0
    0.8621    5.2752    2.2932 H   0  0  0  0  0  0  0  0  0  0  0  0
    1.9086    1.3448    2.3002 H   0  0  0  0  0  0  0  0  0  0  0  0
    1.0065    2.3783    3.4046 H   0  0  0  0  0  0  0  0  0  0  0  0
    0.8589    0.0814    0.6962 H   0  0  0  0  0  0  0  0  0  0  0  0
   -0.8468   -0.1955    0.8731 H   0  0  0  0  0  0  0  0  0  0  0  0
   -0.2559   -0.0936   -1.4798 H   0  0  0  0  0  0  0  0  0  0  0  0
   -0.0845    2.1228   -2.6960 H   0  0  0  0  0  0  0  0  0  0  0  0
    2.4985    2.3487   -2.2507 H   0  0  0  0  0  0  0  0  0  0  0  0
    2.3087    1.0389   -1.0888 H   0  0  0  0  0  0  0  0  0  0  0  0
    1.6574    1.7446   -4.6320 H   0  0  0  0  0  0  0  0  0  0  0  0
    1.7185   -0.0551   -6.3215 H   0  0  0  0  0  0  0  0  0  0  0  0
    2.1807   -2.3985   -5.6382 H   0  0  0  0  0  0  0  0  0  0  0  0
    2.6892   -2.9256   -3.2670 H   0  0  0  0  0  0  0  0  0  0  0  0
    2.6052   -1.1472   -1.5689 H   0  0  0  0  0  0  0  0  0  0  0  0
   -0.3166    3.1458   -0.0308 H   0  0  0  0  0  0  0  0  0  0  0  0
    1.8008    6.6968    0.3117 H   0  0  0  0  0  0  0  0  0  0  0  0
    0.1157    8.0360   -1.1261 H   0  0  0  0  0  0  0  0  0  0  0  0
   -0.9795    7.9604    0.2830 H   0  0  0  0  0  0  0  0  0  0  0  0
    2.3921    9.2707    1.5597 H   0  0  0  0  0  0  0  0  0  0  0  0
    2.3583    7.1721    2.0880 H   0  0  0  0  0  0  0  0  0  0  0  0
    1.0985    6.5053    3.8875 H   0  0  0  0  0  0  0  0  0  0  0  0
   -0.4321    6.9601    3.0956 H   0  0  0  0  0  0  0  0  0  0  0  0
    1.5717    8.6712    4.5740 H   0  0  0  0  0  0  0  0  0  0  0  0
   -0.1899    8.8189    4.4841 H   0  0  0  0  0  0  0  0  0  0  0  0
   -1.8417    2.1092   -1.2321 H   0  0  0  0  0  0  0  0  0  0  0  0
   -2.1501    4.6799    1.8213 H   0  0  0  0  0  0  0  0  0  0  0  0
   -4.7567    1.9341   -1.4229 H   0  0  0  0  0  0  0  0  0  0  0  0
   -3.8888    0.8869    0.6552 H   0  0  0  0  0  0  0  0  0  0  0  0
   -2.4400    5.7637   -2.6106 H   0  0  0  0  0  0  0  0  0  0  0  0
   -3.9692    6.5267   -2.1482 H   0  0  0  0  0  0  0  0  0  0  0  0
    3.4054    9.0553   -4.5950 H   0  0  0  0  0  0  0  0  0  0  0  0
  1  2  1  0  0  0  0
  1 53  1  0  0  0  0
  1 54  1  0  0  0  0
  1 55  1  0  0  0  0
  2  3  1  0  0  0  0
  2 56  1  0  0  0  0
  2 57  1  0  0  0  0
  3  4  1  0  0  0  0
  3 58  1  0  0  0  0
  3 59  1  0  0  0  0
  4  5  2  3  0  0  0
  5  6  1  0  0  0  0
  5 50  1  0  0  0  0
  6  7  1  0  0  0  0
  6 60  1  0  0  0  0
  7  8  1  0  0  0  0
  7 61  1  0  0  0  0
  7 62  1  0  0  0  0
  8  9  1  0  0  0  0
  8 63  1  0  0  0  0
  8 64  1  0  0  0  0
  9 10  1  0  0  0  0
  9 65  1  0  0  0  0
  9 66  1  0  0  0  0
 10 11  1  0  0  0  0
 10 12  1  0  0  0  0
 10 13  1  0  0  0  0
 11 67  1  0  0  0  0
 11 68  1  0  0  0  0
 11 69  1  0  0  0  0
 12 70  1  0  0  0  0
 12 71  1  0  0  0  0
 12 72  1  0  0  0  0
 13 14  1  0  0  0  0
 13 73  1  0  0  0  0
 13 74  1  0  0  0  0
 14 15  1  0  0  0  0
 14 38  1  0  0  0  0
 15 16  1  0  0  0  0
 15 75  1  0  0  0  0
 15 76  1  0  0  0  0
 16 17  1  0  0  0  0
 16 37  1  0  0  0  0
 16 77  1  6  0  0  0
 17 18  1  0  0  0  0
 17 25  1  0  0  0  0
 17 78  1  6  0  0  0
 18 19  1  0  0  0  0
 18 79  1  0  0  0  0
 18 80  1  0  0  0  0
 19 20  2  0  0  0  0
 19 24  1  0  0  0  0
 20 21  1  0  0  0  0
 20 81  1  0  0  0  0
 21 22  2  0  0  0  0
 21 82  1  0  0  0  0
 22 23  1  0  0  0  0
 22 83  1  0  0  0  0
 23 24  2  0  0  0  0
 23 84  1  0  0  0  0
 24 85  1  0  0  0  0
 25 26  1  0  0  0  0
 25 86  1  0  0  0  0
 26 27  2  0  0  0  0
 26 28  1  0  0  0  0
 28 29  1  0  0  0  0
 29 30  1  0  0  0  0
 29 33  1  0  0  0  0
 29 87  1  6  0  0  0
 30 31  1  0  0  0  0
 30 88  1  0  0  0  0
 30 89  1  0  0  0  0
 31 32  1  0  0  0  0
 32 33  1  0  0  0  0
 32 36  1  0  0  0  0
 32 90  1  6  0  0  0
 33 34  1  0  0  0  0
 33 91  1  1  0  0  0
 34 35  1  0  0  0  0
 34 92  1  0  0  0  0
 34 93  1  0  0  0  0
 35 36  1  0  0  0  0
 35 94  1  0  0  0  0
 35 95  1  0  0  0  0
 37 96  1  0  0  0  0
 38 39  2  0  0  0  0
 38 40  2  0  0  0  0
 38 41  1  0  0  0  0
 41 42  2  0  0  0  0
 41 46  1  0  0  0  0
 42 43  1  0  0  0  0
 42 97  1  0  0  0  0
 43 44  2  0  0  0  0
 43 49  1  0  0  0  0
 44 45  1  0  0  0  0
 44 47  1  0  0  0  0
 45 46  2  0  0  0  0
 45 98  1  0  0  0  0
 46 99  1  0  0  0  0
 47 48  1  0  0  0  0
 48 49  1  0  0  0  0
 48100  1  0  0  0  0
 48101  1  0  0  0  0
 50 51  1  0  0  0  0
 50102  1  0  0  0  0
 51 52  3  0  0  0  0
M  END
