
 OpenBabel10072620013D

 37 38  0  0  0  0  0  0  0  0999 V2000
    1.3044   -0.4700   -0.2130 C   0  0  0  0  0  0  0  0  0  0  0  0
    2.6256    0.1758    0.1672 C   0  0  0  0  0  0  0  0  0  0  0  0
    3.2415    0.8130   -1.0227 N   0  0  0  0  0  0  0  0  0  0  0  0
    2.6516    2.1125   -1.4310 C   0  0  0  0  0  0  0  0  0  0  0  0
    2.8490    3.2703   -0.4859 C   0  0  0  0  0  0  0  0  0  0  0  0
    4.0158    4.0382   -0.5246 C   0  0  0  0  0  0  0  0  0  0  0  0
    4.1586    5.0814    0.3752 C   0  0  0  0  0  0  0  0  0  0  0  0
    3.2241    5.4154    1.2904 N   0  0  0  0  0  0  0  0  0  0  0  0
    2.1013    4.6695    1.3106 C   0  0  0  0  0  0  0  0  0  0  0  0
    1.8693    3.6047    0.4551 C   0  0  0  0  0  0  0  0  0  0  0  0
    4.9327    0.7026   -1.1419 S   0  0  0  0  0  0  0  0  0  0  0  0
    5.3655    1.4038   -2.3314 O   0  0  0  0  0  0  0  0  0  0  0  0
    5.4996    0.9924    0.1570 O   0  0  0  0  0  0  0  0  0  0  0  0
    5.1495   -1.0375   -1.4706 C   0  0  0  0  0  0  0  0  0  0  0  0
    4.7826   -1.5330   -2.7281 C   0  0  0  0  0  0  0  0  0  0  0  0
    4.9322   -2.8937   -3.0044 C   0  0  0  0  0  0  0  0  0  0  0  0
    5.4497   -3.7462   -2.0181 C   0  0  0  0  0  0  0  0  0  0  0  0
    5.8291   -3.2442   -0.7631 C   0  0  0  0  0  0  0  0  0  0  0  0
    5.6844   -1.8805   -0.4909 C   0  0  0  0  0  0  0  0  0  0  0  0
    5.5913   -5.1797   -2.3027 N   0  3  0  0  0  0  0  0  0  0  0  0
    5.4304   -5.5527   -3.4732 O   0  0  0  0  0  0  0  0  0  0  0  0
    5.8609   -5.9303   -1.3539 O   0  5  0  0  0  0  0  0  0  0  0  0
    0.8893   -1.0073    0.6449 H   0  0  0  0  0  0  0  0  0  0  0  0
    1.4438   -1.1833   -1.0323 H   0  0  0  0  0  0  0  0  0  0  0  0
    0.5653    0.2703   -0.5329 H   0  0  0  0  0  0  0  0  0  0  0  0
    3.2716   -0.6171    0.5573 H   0  0  0  0  0  0  0  0  0  0  0  0
    2.4882    0.8938    0.9807 H   0  0  0  0  0  0  0  0  0  0  0  0
    1.5768    1.9705   -1.5988 H   0  0  0  0  0  0  0  0  0  0  0  0
    3.0251    2.3836   -2.4259 H   0  0  0  0  0  0  0  0  0  0  0  0
    4.8081    3.8336   -1.2379 H   0  0  0  0  0  0  0  0  0  0  0  0
    5.0563    5.6930    0.3825 H   0  0  0  0  0  0  0  0  0  0  0  0
    1.3680    4.9592    2.0582 H   0  0  0  0  0  0  0  0  0  0  0  0
    0.9409    3.0492    0.5272 H   0  0  0  0  0  0  0  0  0  0  0  0
    4.3828   -0.8641   -3.4884 H   0  0  0  0  0  0  0  0  0  0  0  0
    4.6404   -3.2711   -3.9823 H   0  0  0  0  0  0  0  0  0  0  0  0
    6.2356   -3.8974    0.0065 H   0  0  0  0  0  0  0  0  0  0  0  0
    5.9829   -1.4861    0.4794 H   0  0  0  0  0  0  0  0  0  0  0  0
  1  2  1  0  0  0  0
  1 23  1  0  0  0  0
  1 24  1  0  0  0  0
  1 25  1  0  0  0  0
  2  3  1  0  0  0  0
  2 26  1  0  0  0  0
  2 27  1  0  0  0  0
  3  4  1  0  0  0  0
  3 11  1  0  0  0  0
  4  5  1  0  0  0  0
  4 28  1  0  0  0  0
  4 29  1  0  0  0  0
  5  6  2  0  0  0  0
  5 10  1  0  0  0  0
  6  7  1  0  0  0  0
  6 30  1  0  0  0  0
  7  8  2  0  0  0  0
  7 31  1  0  0  0  0
  8  9  1  0  0  0  0
  9 10  2  0  0  0  0
  9 32  1  0  0  0  0
 10 33  1  0  0  0  0
 11 12  2  0  0  0  0
 11 13  2  0  0  0  0
 11 14  1  0  0  0  0
 14 15  2  0  0  0  0
 14 19  1  0  0  0  0
 15 16  1  0  0  0  0
 15 34  1  0  0  0  0
 16 17  2  0  0  0  0
 16 35  1  0  0  0  0
 17 18  1  0  0  0  0
 17 20  1  0  0  0  0
 18 19  2  0  0  0  0
 18 36  1  0  0  0  0
 19 37  1  0  0  0  0
 20 21  2  0  0  0  0
 20 22  1  0  0  0  0
M  CHG  2  20   1  22  -1
M  END
