
 OpenBabel10072620093D

 47 50  0  0  0  0  0  0  0  0999 V2000
    0.2631   -0.2303   -4.6071 C   0  0  0  0  0  0  0  0  0  0  0  0
   -0.9164    0.6436   -4.2901 C   0  0  0  0  0  0  0  0  0  0  0  0
   -0.8181    1.6541   -3.3224 C   0  0  0  0  0  0  0  0  0  0  0  0
   -1.9323    2.4503   -3.0225 C   0  0  0  0  0  0  0  0  0  0  0  0
   -3.1498    2.2274   -3.6736 C   0  0  0  0  0  0  0  0  0  0  0  0
   -3.2487    1.2310   -4.6433 C   0  0  0  0  0  0  0  0  0  0  0  0
   -2.1371    0.4437   -4.9506 C   0  0  0  0  0  0  0  0  0  0  0  0
   -1.8694    3.5636   -2.0420 C   0  0  0  0  0  0  0  0  0  0  0  0
   -2.8125    3.7769   -1.2860 O   0  0  0  0  0  0  0  0  0  0  0  0
   -0.7028    4.3143   -2.0656 N   0  0  0  0  0  0  0  0  0  0  0  0
   -0.4917    5.5748   -1.5333 C   0  0  0  0  0  0  0  0  0  0  0  0
    0.9942    6.2752   -1.8476 S   0  0  0  0  0  0  0  0  0  0  0  0
   -1.5315    6.0726   -0.7866 N   0  0  0  0  0  0  0  0  0  0  0  0
   -1.8360    7.3923   -0.3806 C   0  0  0  0  0  0  0  0  0  0  0  0
   -2.6542    7.5864    0.7511 C   0  0  0  0  0  0  0  0  0  0  0  0
   -2.9974    8.8911    1.1409 C   0  0  0  0  0  0  0  0  0  0  0  0
   -2.5812    9.9935    0.3933 C   0  0  0  0  0  0  0  0  0  0  0  0
   -1.8230    9.8119   -0.7688 C   0  0  0  0  0  0  0  0  0  0  0  0
   -1.4457    8.5075   -1.1330 C   0  0  0  0  0  0  0  0  0  0  0  0
   -1.4544   10.9301   -1.6364 C   0  0  0  0  0  0  0  0  0  0  0  0
   -0.8227   10.9001   -2.7972 N   0  0  0  0  0  0  0  0  0  0  0  0
   -0.7928   12.2076   -3.1800 C   0  0  0  0  0  0  0  0  0  0  0  0
   -1.4080   12.9988   -2.2241 C   0  0  0  0  0  0  0  0  0  0  0  0
   -1.8422   12.1849   -1.2225 O   0  0  0  0  0  0  0  0  0  0  0  0
   -1.5242   14.3727   -2.3369 C   0  0  0  0  0  0  0  0  0  0  0  0
   -0.9709   14.8993   -3.5049 C   0  0  0  0  0  0  0  0  0  0  0  0
   -0.3706   14.0471   -4.4339 C   0  0  0  0  0  0  0  0  0  0  0  0
   -0.2561   12.7030   -4.3183 N   0  0  0  0  0  0  0  0  0  0  0  0
   -3.1784    6.4343    1.5659 C   0  0  0  0  0  0  0  0  0  0  0  0
    1.1472    0.0702   -4.0347 H   0  0  0  0  0  0  0  0  0  0  0  0
    0.5166   -0.1615   -5.6698 H   0  0  0  0  0  0  0  0  0  0  0  0
    0.0386   -1.2715   -4.3542 H   0  0  0  0  0  0  0  0  0  0  0  0
    0.1228    1.7931   -2.7957 H   0  0  0  0  0  0  0  0  0  0  0  0
   -4.0181    2.8394   -3.4366 H   0  0  0  0  0  0  0  0  0  0  0  0
   -4.1925    1.0677   -5.1582 H   0  0  0  0  0  0  0  0  0  0  0  0
   -2.2307   -0.3313   -5.7097 H   0  0  0  0  0  0  0  0  0  0  0  0
    0.0346    4.0337   -2.6965 H   0  0  0  0  0  0  0  0  0  0  0  0
   -2.1679    5.3499   -0.4502 H   0  0  0  0  0  0  0  0  0  0  0  0
   -3.5994    9.0559    2.0330 H   0  0  0  0  0  0  0  0  0  0  0  0
   -2.8807   10.9891    0.7148 H   0  0  0  0  0  0  0  0  0  0  0  0
   -0.8929    8.3820   -2.0617 H   0  0  0  0  0  0  0  0  0  0  0  0
   -2.0008   14.9798   -1.5799 H   0  0  0  0  0  0  0  0  0  0  0  0
   -1.0039   15.9679   -3.6934 H   0  0  0  0  0  0  0  0  0  0  0  0
    0.0588   14.4564   -5.3461 H   0  0  0  0  0  0  0  0  0  0  0  0
   -2.3532    5.7985    1.9010 H   0  0  0  0  0  0  0  0  0  0  0  0
   -3.8849    5.8459    0.9711 H   0  0  0  0  0  0  0  0  0  0  0  0
   -3.7077    6.7795    2.4609 H   0  0  0  0  0  0  0  0  0  0  0  0
  1  2  1  0  0  0  0
  1 30  1  0  0  0  0
  1 31  1  0  0  0  0
  1 32  1  0  0  0  0
  2  3  2  0  0  0  0
  2  7  1  0  0  0  0
  3  4  1  0  0  0  0
  3 33  1  0  0  0  0
  4  5  2  0  0  0  0
  4  8  1  0  0  0  0
  5  6  1  0  0  0  0
  5 34  1  0  0  0  0
  6  7  2  0  0  0  0
  6 35  1  0  0  0  0
  7 36  1  0  0  0  0
  8  9  2  0  0  0  0
  8 10  1  0  0  0  0
 10 11  1  0  0  0  0
 10 37  1  0  0  0  0
 11 12  2  0  0  0  0
 11 13  1  0  0  0  0
 13 14  1  0  0  0  0
 13 38  1  0  0  0  0
 14 15  2  0  0  0  0
 14 19  1  0  0  0  0
 15 16  1  0  0  0  0
 15 29  1  0  0  0  0
 16 17  2  0  0  0  0
 16 39  1  0  0  0  0
 17 18  1  0  0  0  0
 17 40  1  0  0  0  0
 18 19  2  0  0  0  0
 18 20  1  0  0  0  0
 19 41  1  0  0  0  0
 20 21  2  0  0  0  0
 20 24  1  0  0  0  0
 21 22  1  0  0  0  0
 22 23  2  0  0  0  0
 22 28  1  0  0  0  0
 23 24  1  0  0  0  0
 23 25  1  0  0  0  0
 25 26  2  0  0  0  0
 25 42  1  0  0  0  0
 26 27  1  0  0  0  0
 26 43  1  0  0  0  0
 27 28  2  0  0  0  0
 27 44  1  0  0  0  0
 29 45  1  0  0  0  0
 29 46  1  0  0  0  0
 29 47  1  0  0  0  0
M  END
