
 OpenBabel10072619503D

 25 26  0  0  0  0  0  0  0  0999 V2000
    0.7338    1.9601   -1.3941 C   0  0  0  0  0  0  0  0  0  0  0  0
    0.2064    0.7358   -0.7493 C   0  0  0  0  0  0  0  0  0  0  0  0
    0.8232   -0.0238    0.1332 N   0  0  0  0  0  0  0  0  0  0  0  0
   -0.0601   -1.0315    0.4400 C   0  0  0  0  0  0  0  0  0  0  0  0
   -1.2289   -0.8799   -0.2656 C   0  0  0  0  0  0  0  0  0  0  0  0
   -1.0484    0.2497   -1.0144 N   0  0  0  0  0  0  0  0  0  0  0  0
   -2.4554   -1.7035   -0.2704 C   0  0  0  0  0  0  0  0  0  0  0  0
   -2.6477   -2.8185    0.5116 C   0  0  0  0  0  0  0  0  0  0  0  0
   -4.2092   -3.4570    0.2263 S   0  0  0  0  0  0  0  0  0  0  0  0
   -4.5062   -2.2197   -0.9497 C   0  0  0  0  0  0  0  0  0  0  0  0
   -3.5073   -1.3646   -1.1010 N   0  0  0  0  0  0  0  0  0  0  0  0
   -5.7110   -2.2225   -1.5759 N   0  0  0  0  0  0  0  0  0  0  0  0
   -5.8069   -1.6575   -2.7337 C   0  0  0  0  0  0  0  0  0  0  0  0
   -4.8449   -1.0613   -3.4812 N   0  0  0  0  0  0  0  0  0  0  0  0
   -6.9932   -1.6713   -3.3866 N   0  0  0  0  0  0  0  0  0  0  0  0
    1.8182    2.0263   -1.2633 H   0  0  0  0  0  0  0  0  0  0  0  0
    0.2788    2.8503   -0.9492 H   0  0  0  0  0  0  0  0  0  0  0  0
    0.5215    1.9601   -2.4678 H   0  0  0  0  0  0  0  0  0  0  0  0
    0.2072   -1.8040    1.1485 H   0  0  0  0  0  0  0  0  0  0  0  0
   -1.7310    0.6481   -1.6429 H   0  0  0  0  0  0  0  0  0  0  0  0
   -1.9809   -3.2764    1.2273 H   0  0  0  0  0  0  0  0  0  0  0  0
   -3.9910   -0.8976   -2.9481 H   0  0  0  0  0  0  0  0  0  0  0  0
   -5.1218   -0.2570   -4.0213 H   0  0  0  0  0  0  0  0  0  0  0  0
   -7.7581   -1.9801   -2.7958 H   0  0  0  0  0  0  0  0  0  0  0  0
   -7.2229   -0.8650   -3.9466 H   0  0  0  0  0  0  0  0  0  0  0  0
  1  2  1  0  0  0  0
  1 16  1  0  0  0  0
  1 17  1  0  0  0  0
  1 18  1  0  0  0  0
  2  3  2  0  0  0  0
  2  6  1  0  0  0  0
  3  4  1  0  0  0  0
  4  5  2  0  0  0  0
  4 19  1  0  0  0  0
  5  6  1  0  0  0  0
  5  7  1  0  0  0  0
  6 20  1  0  0  0  0
  7  8  2  0  0  0  0
  7 11  1  0  0  0  0
  8  9  1  0  0  0  0
  8 21  1  0  0  0  0
  9 10  1  0  0  0  0
 10 11  2  0  0  0  0
 10 12  1  0  0  0  0
 12 13  2  0  0  0  0
 13 14  1  0  0  0  0
 13 15  1  0  0  0  0
 14 22  1  0  0  0  0
 14 23  1  0  0  0  0
 15 24  1  0  0  0  0
 15 25  1  0  0  0  0
M  END
