
 OpenBabel10072619483D

 82 84  0  0  1  0  0  0  0  0999 V2000
   -5.3789   -2.4870   -6.5882 C   0  0  0  0  0  0  0  0  0  0  0  0
   -5.4644   -1.6562   -5.3383 C   0  0  0  0  0  0  0  0  0  0  0  0
   -5.4396   -2.2634   -4.0747 C   0  0  0  0  0  0  0  0  0  0  0  0
   -5.6171   -1.5009   -2.9163 C   0  0  0  0  0  0  0  0  0  0  0  0
   -5.8166   -0.1211   -3.0189 C   0  0  0  0  0  0  0  0  0  0  0  0
   -5.8638    0.4943   -4.2728 C   0  0  0  0  0  0  0  0  0  0  0  0
   -5.6796   -0.2732   -5.4269 C   0  0  0  0  0  0  0  0  0  0  0  0
   -6.2187    0.8023   -1.5511 S   0  0  0  0  0  0  0  0  0  0  0  0
   -6.5685    2.1553   -1.9304 O   0  0  0  0  0  0  0  0  0  0  0  0
   -7.1374   -0.0287   -0.8065 O   0  0  0  0  0  0  0  0  0  0  0  0
   -4.7052    0.9227   -0.6532 N   0  0  0  0  0  0  0  0  0  0  0  0
   -3.6974    1.7556   -1.4800 C   0  0  0  0  0  0  0  0  0  0  0  0
   -2.2418    1.2544   -1.4074 C   0  0  0  0  0  0  0  0  0  0  0  0
   -2.0904   -0.1842   -1.9088 C   0  0  0  0  0  0  0  0  0  0  0  0
   -1.3410    2.1640   -2.2544 C   0  0  0  0  0  0  0  0  0  0  0  0
   -4.9225    1.6322    0.7227 C   0  0  1  0  0  0  0  0  0  0  0  0
   -6.1049    1.1427    1.5847 C   0  0  0  0  0  0  0  0  0  0  0  0
   -5.9984   -0.3175    2.0552 C   0  0  0  0  0  0  0  0  0  0  0  0
   -7.1762   -0.7692    2.9161 C   0  0  0  0  0  0  0  0  0  0  0  0
   -8.4499   -1.0612    2.1196 C   0  0  0  0  0  0  0  0  0  0  0  0
   -9.4903   -1.5632    2.9961 N   0  0  0  0  0  0  0  0  0  0  0  0
   -9.3623   -2.7739    3.6392 C   0  0  0  0  0  0  0  0  0  0  0  0
   -8.5750   -3.6498    3.2790 O   0  0  0  0  0  0  0  0  0  0  0  0
  -10.2620   -2.9817    4.8642 C   0  0  0  0  0  0  0  0  0  0  0  0
  -11.0321   -1.7975    5.3612 N   0  0  0  0  0  0  0  0  0  0  0  0
  -12.1318   -2.2198    6.2777 C   0  0  0  0  0  0  0  0  0  0  0  0
  -13.4800   -2.2838    5.5887 C   0  0  0  0  0  0  0  0  0  0  0  0
  -13.7024   -1.7093    4.3292 C   0  0  0  0  0  0  0  0  0  0  0  0
  -14.9730   -1.7112    3.7556 C   0  0  0  0  0  0  0  0  0  0  0  0
  -16.0425   -2.2901    4.4327 C   0  0  0  0  0  0  0  0  0  0  0  0
  -15.8395   -2.8787    5.6792 C   0  0  0  0  0  0  0  0  0  0  0  0
  -14.5676   -2.8727    6.2573 C   0  0  0  0  0  0  0  0  0  0  0  0
  -10.3817   -0.6585    5.8756 C   0  0  0  0  0  0  0  0  0  0  0  0
  -11.1132    0.5429    6.0050 C   0  0  0  0  0  0  0  0  0  0  0  0
  -10.5439    1.6932    6.5568 C   0  0  0  0  0  0  0  0  0  0  0  0
   -9.2126    1.6756    6.9607 C   0  0  0  0  0  0  0  0  0  0  0  0
   -8.4596    0.5127    6.8096 C   0  0  0  0  0  0  0  0  0  0  0  0
   -9.0417   -0.6434    6.2759 C   0  0  0  0  0  0  0  0  0  0  0  0
   -3.6698    1.4452    1.5783 C   0  0  0  0  0  0  0  0  0  0  0  0
   -3.2605    2.2424    2.4113 O   0  0  0  0  0  0  0  0  0  0  0  0
   -3.0881    0.2358    1.3614 O   0  0  0  0  0  0  0  0  0  0  0  0
   -4.7453   -3.3670   -6.4379 H   0  0  0  0  0  0  0  0  0  0  0  0
   -4.9482   -1.9130   -7.4158 H   0  0  0  0  0  0  0  0  0  0  0  0
   -6.3797   -2.8209   -6.8816 H   0  0  0  0  0  0  0  0  0  0  0  0
   -5.3150   -3.3418   -3.9871 H   0  0  0  0  0  0  0  0  0  0  0  0
   -5.6455   -1.9938   -1.9467 H   0  0  0  0  0  0  0  0  0  0  0  0
   -6.0805    1.5564   -4.3663 H   0  0  0  0  0  0  0  0  0  0  0  0
   -5.7372    0.2068   -6.4023 H   0  0  0  0  0  0  0  0  0  0  0  0
   -3.7461    2.8019   -1.1529 H   0  0  0  0  0  0  0  0  0  0  0  0
   -3.9881    1.7635   -2.5353 H   0  0  0  0  0  0  0  0  0  0  0  0
   -1.8646    1.3237   -0.3820 H   0  0  0  0  0  0  0  0  0  0  0  0
   -2.5386   -0.3071   -2.9015 H   0  0  0  0  0  0  0  0  0  0  0  0
   -2.5661   -0.8977   -1.2322 H   0  0  0  0  0  0  0  0  0  0  0  0
   -1.0330   -0.4676   -1.9799 H   0  0  0  0  0  0  0  0  0  0  0  0
   -1.6041    2.1055   -3.3171 H   0  0  0  0  0  0  0  0  0  0  0  0
   -0.2919    1.8639   -2.1461 H   0  0  0  0  0  0  0  0  0  0  0  0
   -1.4247    3.2085   -1.9352 H   0  0  0  0  0  0  0  0  0  0  0  0
   -5.0422    2.7051    0.5275 H   0  0  0  0  0  0  0  0  0  0  0  0
   -7.0610    1.3324    1.0891 H   0  0  0  0  0  0  0  0  0  0  0  0
   -6.1340    1.7782    2.4807 H   0  0  0  0  0  0  0  0  0  0  0  0
   -5.1087   -0.4255    2.6864 H   0  0  0  0  0  0  0  0  0  0  0  0
   -5.8603   -0.9990    1.2072 H   0  0  0  0  0  0  0  0  0  0  0  0
   -7.3844   -0.0313    3.7033 H   0  0  0  0  0  0  0  0  0  0  0  0
   -6.8629   -1.6862    3.4341 H   0  0  0  0  0  0  0  0  0  0  0  0
   -8.2559   -1.7936    1.3294 H   0  0  0  0  0  0  0  0  0  0  0  0
   -8.8444   -0.1565    1.6511 H   0  0  0  0  0  0  0  0  0  0  0  0
  -10.0964   -0.8945    3.4598 H   0  0  0  0  0  0  0  0  0  0  0  0
   -9.6406   -3.3891    5.6721 H   0  0  0  0  0  0  0  0  0  0  0  0
  -10.9817   -3.7504    4.5505 H   0  0  0  0  0  0  0  0  0  0  0  0
  -12.2397   -1.5515    7.1443 H   0  0  0  0  0  0  0  0  0  0  0  0
  -11.8882   -3.2076    6.6954 H   0  0  0  0  0  0  0  0  0  0  0  0
  -12.8817   -1.2490    3.7839 H   0  0  0  0  0  0  0  0  0  0  0  0
  -15.1215   -1.2623    2.7776 H   0  0  0  0  0  0  0  0  0  0  0  0
  -17.0315   -2.2893    3.9832 H   0  0  0  0  0  0  0  0  0  0  0  0
  -16.6727   -3.3440    6.1996 H   0  0  0  0  0  0  0  0  0  0  0  0
  -14.4327   -3.3263    7.2379 H   0  0  0  0  0  0  0  0  0  0  0  0
  -12.1516    0.5866    5.6773 H   0  0  0  0  0  0  0  0  0  0  0  0
  -11.1460    2.5912    6.6747 H   0  0  0  0  0  0  0  0  0  0  0  0
   -8.7609    2.5645    7.3937 H   0  0  0  0  0  0  0  0  0  0  0  0
   -7.4172    0.4961    7.1207 H   0  0  0  0  0  0  0  0  0  0  0  0
   -8.4243   -1.5332    6.2064 H   0  0  0  0  0  0  0  0  0  0  0  0
   -3.5691   -0.2074    0.6230 H   0  0  0  0  0  0  0  0  0  0  0  0
  1  2  1  0  0  0  0
  1 42  1  0  0  0  0
  1 43  1  0  0  0  0
  1 44  1  0  0  0  0
  2  3  2  0  0  0  0
  2  7  1  0  0  0  0
  3  4  1  0  0  0  0
  3 45  1  0  0  0  0
  4  5  2  0  0  0  0
  4 46  1  0  0  0  0
  5  6  1  0  0  0  0
  5  8  1  0  0  0  0
  6  7  2  0  0  0  0
  6 47  1  0  0  0  0
  7 48  1  0  0  0  0
  8  9  2  0  0  0  0
  8 10  2  0  0  0  0
  8 11  1  0  0  0  0
 11 12  1  0  0  0  0
 11 16  1  0  0  0  0
 12 13  1  0  0  0  0
 12 49  1  0  0  0  0
 12 50  1  0  0  0  0
 13 14  1  0  0  0  0
 13 15  1  0  0  0  0
 13 51  1  0  0  0  0
 14 52  1  0  0  0  0
 14 53  1  0  0  0  0
 14 54  1  0  0  0  0
 15 55  1  0  0  0  0
 15 56  1  0  0  0  0
 15 57  1  0  0  0  0
 16 17  1  0  0  0  0
 16 39  1  0  0  0  0
 16 58  1  6  0  0  0
 17 18  1  0  0  0  0
 17 59  1  0  0  0  0
 17 60  1  0  0  0  0
 18 19  1  0  0  0  0
 18 61  1  0  0  0  0
 18 62  1  0  0  0  0
 19 20  1  0  0  0  0
 19 63  1  0  0  0  0
 19 64  1  0  0  0  0
 20 21  1  0  0  0  0
 20 65  1  0  0  0  0
 20 66  1  0  0  0  0
 21 22  1  0  0  0  0
 21 67  1  0  0  0  0
 22 23  2  0  0  0  0
 22 24  1  0  0  0  0
 24 25  1  0  0  0  0
 24 68  1  0  0  0  0
 24 69  1  0  0  0  0
 25 26  1  0  0  0  0
 25 33  1  0  0  0  0
 26 27  1  0  0  0  0
 26 70  1  0  0  0  0
 26 71  1  0  0  0  0
 27 28  2  0  0  0  0
 27 32  1  0  0  0  0
 28 29  1  0  0  0  0
 28 72  1  0  0  0  0
 29 30  2  0  0  0  0
 29 73  1  0  0  0  0
 30 31  1  0  0  0  0
 30 74  1  0  0  0  0
 31 32  2  0  0  0  0
 31 75  1  0  0  0  0
 32 76  1  0  0  0  0
 33 34  2  0  0  0  0
 33 38  1  0  0  0  0
 34 35  1  0  0  0  0
 34 77  1  0  0  0  0
 35 36  2  0  0  0  0
 35 78  1  0  0  0  0
 36 37  1  0  0  0  0
 36 79  1  0  0  0  0
 37 38  2  0  0  0  0
 37 80  1  0  0  0  0
 38 81  1  0  0  0  0
 39 40  2  0  0  0  0
 39 41  1  0  0  0  0
 41 82  1  0  0  0  0
M  END
