
 OpenBabel10072620103D

 75 81  0  0  0  0  0  0  0  0999 V2000
   -2.5903    4.7646    2.4221 C   0  0  0  0  0  0  0  0  0  0  0  0
   -3.7116    4.0055    2.7472 C   0  0  0  0  0  0  0  0  0  0  0  0
   -4.0902    2.9271    1.9410 C   0  0  0  0  0  0  0  0  0  0  0  0
   -3.3600    2.6012    0.7897 C   0  0  0  0  0  0  0  0  0  0  0  0
   -2.2247    3.3682    0.4839 C   0  0  0  0  0  0  0  0  0  0  0  0
   -1.8430    4.4431    1.2926 C   0  0  0  0  0  0  0  0  0  0  0  0
   -3.6934    1.4615   -0.0836 C   0  0  0  0  0  0  0  0  0  0  0  0
   -4.8589    0.7947   -0.0939 C   0  0  0  0  0  0  0  0  0  0  0  0
   -5.0334   -0.3816   -1.0012 C   0  0  0  0  0  0  0  0  0  0  0  0
   -4.2604   -0.5590   -1.9444 O   0  0  0  0  0  0  0  0  0  0  0  0
   -6.1171   -1.3935   -0.6953 C   0  0  0  0  0  0  0  0  0  0  0  0
   -5.8879   -2.0565    0.6423 C   0  0  0  0  0  0  0  0  0  0  0  0
   -6.2261   -1.4289    1.7331 N   0  0  0  0  0  0  0  0  0  0  0  0
   -6.0567   -2.1022    2.8998 C   0  0  0  0  0  0  0  0  0  0  0  0
   -6.2687   -1.7018    4.1374 N   0  0  0  0  0  0  0  0  0  0  0  0
   -5.9545   -2.7371    4.9932 N   0  0  0  0  0  0  0  0  0  0  0  0
   -5.5865   -3.7797    4.2745 C   0  0  0  0  0  0  0  0  0  0  0  0
   -5.6084   -3.4014    2.9555 N   0  0  0  0  0  0  0  0  0  0  0  0
   -5.1237   -4.0417    1.8707 N   0  0  0  0  0  0  0  0  0  0  0  0
   -5.3015   -3.4704    0.6398 C   0  0  0  0  0  0  0  0  0  0  0  0
   -5.0306   -4.0234   -0.4130 O   0  0  0  0  0  0  0  0  0  0  0  0
   -5.2660   -4.9871    4.8548 N   0  0  0  0  0  0  0  0  0  0  0  0
   -5.2474   -6.1926    4.1938 C   0  0  0  0  0  0  0  0  0  0  0  0
   -5.4192   -6.3083    2.9868 O   0  0  0  0  0  0  0  0  0  0  0  0
   -5.0264   -7.2345    5.0740 N   0  0  0  0  0  0  0  0  0  0  0  0
   -5.1936   -8.6118    4.8250 C   0  0  0  0  0  0  0  0  0  0  0  0
   -5.7837   -9.1246    3.6665 C   0  0  0  0  0  0  0  0  0  0  0  0
   -5.9550  -10.5044    3.5072 C   0  0  0  0  0  0  0  0  0  0  0  0
   -5.5355  -11.3767    4.5070 C   0  0  0  0  0  0  0  0  0  0  0  0
   -4.9470  -10.8806    5.6668 C   0  0  0  0  0  0  0  0  0  0  0  0
   -4.7824   -9.5009    5.8273 C   0  0  0  0  0  0  0  0  0  0  0  0
   -5.7471  -13.0721    4.3106 Cl  0  0  0  0  0  0  0  0  0  0  0  0
   -7.5387   -0.8917   -0.8084 C   0  0  0  0  0  0  0  0  0  0  0  0
   -7.8186    0.3555   -1.0569 N   0  0  0  0  0  0  0  0  0  0  0  0
   -9.1359    0.6867   -1.1403 C   0  0  0  0  0  0  0  0  0  0  0  0
   -9.6998    1.8659   -1.3144 N   0  0  0  0  0  0  0  0  0  0  0  0
  -11.0711    1.7042   -1.3231 N   0  0  0  0  0  0  0  0  0  0  0  0
  -11.3442    0.4222   -1.1793 C   0  0  0  0  0  0  0  0  0  0  0  0
  -10.1495   -0.2381   -1.0355 N   0  0  0  0  0  0  0  0  0  0  0  0
   -9.9147   -1.5223   -0.7064 N   0  0  0  0  0  0  0  0  0  0  0  0
   -8.6256   -1.9578   -0.6202 C   0  0  0  0  0  0  0  0  0  0  0  0
   -8.3057   -3.1173   -0.4060 O   0  0  0  0  0  0  0  0  0  0  0  0
  -12.6382   -0.0516   -1.1904 N   0  0  0  0  0  0  0  0  0  0  0  0
  -13.0114   -1.3695   -1.3079 C   0  0  0  0  0  0  0  0  0  0  0  0
  -12.2167   -2.3010   -1.3676 O   0  0  0  0  0  0  0  0  0  0  0  0
  -14.3870   -1.4959   -1.3417 N   0  0  0  0  0  0  0  0  0  0  0  0
  -15.1310   -2.6694   -1.5833 C   0  0  0  0  0  0  0  0  0  0  0  0
  -14.5766   -3.8598   -2.0616 C   0  0  0  0  0  0  0  0  0  0  0  0
  -15.3828   -4.9844   -2.2735 C   0  0  0  0  0  0  0  0  0  0  0  0
  -16.7472   -4.9204   -2.0085 C   0  0  0  0  0  0  0  0  0  0  0  0
  -17.3154   -3.7383   -1.5436 C   0  0  0  0  0  0  0  0  0  0  0  0
  -16.5100   -2.6135   -1.3421 C   0  0  0  0  0  0  0  0  0  0  0  0
  -17.7354   -6.3051   -2.2519 Cl  0  0  0  0  0  0  0  0  0  0  0  0
   -2.2973    5.6012    3.0509 H   0  0  0  0  0  0  0  0  0  0  0  0
   -4.2939    4.2470    3.6327 H   0  0  0  0  0  0  0  0  0  0  0  0
   -4.9600    2.3483    2.2396 H   0  0  0  0  0  0  0  0  0  0  0  0
   -1.6225    3.1396   -0.3934 H   0  0  0  0  0  0  0  0  0  0  0  0
   -0.9620    5.0271    1.0391 H   0  0  0  0  0  0  0  0  0  0  0  0
   -2.9012    1.1561   -0.7671 H   0  0  0  0  0  0  0  0  0  0  0  0
   -5.6889    1.0509    0.5523 H   0  0  0  0  0  0  0  0  0  0  0  0
   -6.0347   -2.1532   -1.4843 H   0  0  0  0  0  0  0  0  0  0  0  0
   -5.0319   -5.0546    1.9344 H   0  0  0  0  0  0  0  0  0  0  0  0
   -5.3786   -4.9897    5.8583 H   0  0  0  0  0  0  0  0  0  0  0  0
   -4.6170   -6.9882    5.9639 H   0  0  0  0  0  0  0  0  0  0  0  0
   -6.1402   -8.4768    2.8713 H   0  0  0  0  0  0  0  0  0  0  0  0
   -6.4191  -10.8833    2.6000 H   0  0  0  0  0  0  0  0  0  0  0  0
   -4.6191  -11.5608    6.4485 H   0  0  0  0  0  0  0  0  0  0  0  0
   -4.3287   -9.1397    6.7468 H   0  0  0  0  0  0  0  0  0  0  0  0
  -10.6845   -2.1826   -0.8011 H   0  0  0  0  0  0  0  0  0  0  0  0
  -13.3261    0.6696   -1.3528 H   0  0  0  0  0  0  0  0  0  0  0  0
  -14.9170   -0.6914   -1.0383 H   0  0  0  0  0  0  0  0  0  0  0  0
  -13.5199   -3.9456   -2.2949 H   0  0  0  0  0  0  0  0  0  0  0  0
  -14.9340   -5.9036   -2.6418 H   0  0  0  0  0  0  0  0  0  0  0  0
  -18.3802   -3.6857   -1.3319 H   0  0  0  0  0  0  0  0  0  0  0  0
  -16.9775   -1.7013   -0.9804 H   0  0  0  0  0  0  0  0  0  0  0  0
  1  2  2  0  0  0  0
  1  6  1  0  0  0  0
  1 54  1  0  0  0  0
  2  3  1  0  0  0  0
  2 55  1  0  0  0  0
  3  4  2  0  0  0  0
  3 56  1  0  0  0  0
  4  5  1  0  0  0  0
  4  7  1  0  0  0  0
  5  6  2  0  0  0  0
  5 57  1  0  0  0  0
  6 58  1  0  0  0  0
  7  8  2  0  0  0  0
  7 59  1  0  0  0  0
  8  9  1  0  0  0  0
  8 60  1  0  0  0  0
  9 10  2  0  0  0  0
  9 11  1  0  0  0  0
 11 12  1  0  0  0  0
 11 33  1  0  0  0  0
 11 61  1  0  0  0  0
 12 13  2  0  0  0  0
 12 20  1  0  0  0  0
 13 14  1  0  0  0  0
 14 15  2  0  0  0  0
 14 18  1  0  0  0  0
 15 16  1  0  0  0  0
 16 17  2  0  0  0  0
 17 18  1  0  0  0  0
 17 22  1  0  0  0  0
 18 19  1  0  0  0  0
 19 20  1  0  0  0  0
 19 62  1  0  0  0  0
 20 21  2  0  0  0  0
 22 23  1  0  0  0  0
 22 63  1  0  0  0  0
 23 24  2  0  0  0  0
 23 25  1  0  0  0  0
 25 26  1  0  0  0  0
 25 64  1  0  0  0  0
 26 27  2  0  0  0  0
 26 31  1  0  0  0  0
 27 28  1  0  0  0  0
 27 65  1  0  0  0  0
 28 29  2  0  0  0  0
 28 66  1  0  0  0  0
 29 30  1  0  0  0  0
 29 32  1  0  0  0  0
 30 31  2  0  0  0  0
 30 67  1  0  0  0  0
 31 68  1  0  0  0  0
 33 34  2  0  0  0  0
 33 41  1  0  0  0  0
 34 35  1  0  0  0  0
 35 36  2  0  0  0  0
 35 39  1  0  0  0  0
 36 37  1  0  0  0  0
 37 38  2  0  0  0  0
 38 39  1  0  0  0  0
 38 43  1  0  0  0  0
 39 40  1  0  0  0  0
 40 41  1  0  0  0  0
 40 69  1  0  0  0  0
 41 42  2  0  0  0  0
 43 44  1  0  0  0  0
 43 70  1  0  0  0  0
 44 45  2  0  0  0  0
 44 46  1  0  0  0  0
 46 47  1  0  0  0  0
 46 71  1  0  0  0  0
 47 48  2  0  0  0  0
 47 52  1  0  0  0  0
 48 49  1  0  0  0  0
 48 72  1  0  0  0  0
 49 50  2  0  0  0  0
 49 73  1  0  0  0  0
 50 51  1  0  0  0  0
 50 53  1  0  0  0  0
 51 52  2  0  0  0  0
 51 74  1  0  0  0  0
 52 75  1  0  0  0  0
M  END
