
 OpenBabel10072619533D

104108  0  0  1  0  0  0  0  0999 V2000
   -0.2096    2.3810   -0.3355 C   0  0  0  0  0  0  0  0  0  0  0  0
    1.2458    2.2716   -0.4847 N   0  0  0  0  0  0  0  0  0  0  0  0
    1.6844    0.9510   -0.9484 C   0  0  0  0  0  0  0  0  0  0  0  0
    1.9235    2.6810    0.6831 C   0  0  0  0  0  0  0  0  0  0  0  0
    1.8735    1.9693    1.8852 C   0  0  0  0  0  0  0  0  0  0  0  0
    2.5884    2.4011    3.0094 C   0  0  0  0  0  0  0  0  0  0  0  0
    3.3450    3.5739    2.9714 C   0  0  0  0  0  0  0  0  0  0  0  0
    3.3904    4.2957    1.7742 C   0  0  0  0  0  0  0  0  0  0  0  0
    2.6935    3.8491    0.6424 C   0  0  0  0  0  0  0  0  0  0  0  0
    4.1127    4.0491    4.0552 N   0  0  0  0  0  0  0  0  0  0  0  0
    4.1480    3.5459    5.3333 C   0  0  0  0  0  0  0  0  0  0  0  0
    3.3074    2.7730    5.7910 O   0  0  0  0  0  0  0  0  0  0  0  0
    5.2261    3.9933    6.1109 N   0  0  0  0  0  0  0  0  0  0  0  0
    6.4685    4.6028    5.5974 C   0  0  0  0  0  0  0  0  0  0  0  0
    7.1338    3.9768    4.3506 C   0  0  3  0  0  0  0  0  0  0  0  0
    7.4813    2.4902    4.5014 C   0  0  0  0  0  0  0  0  0  0  0  0
    8.1078    1.9538    3.2049 C   0  0  0  0  0  0  0  0  0  0  0  0
    9.3542    2.7536    2.7844 C   0  0  3  0  0  0  0  0  0  0  0  0
    9.0576    4.2571    2.7253 C   0  0  0  0  0  0  0  0  0  0  0  0
    8.4030    4.7731    4.0029 C   0  0  0  0  0  0  0  0  0  0  0  0
   10.0241    2.2104    1.4944 C   0  0  0  0  0  0  0  0  0  0  0  0
    9.4132    2.5976    0.2058 N   0  0  0  0  0  0  0  0  0  0  0  0
    8.4251    1.6434   -0.3536 C   0  0  0  0  0  0  0  0  0  0  0  0
    8.9285    0.9227   -1.6203 C   0  0  0  0  0  0  0  0  0  0  0  0
    7.9147   -0.1004   -2.1340 C   0  0  0  0  0  0  0  0  0  0  0  0
    6.5118    0.4850   -2.2843 C   0  0  0  0  0  0  0  0  0  0  0  0
    6.0347    1.1481   -0.9947 C   0  0  0  0  0  0  0  0  0  0  0  0
    7.0099    2.2243   -0.5193 C   0  0  0  0  0  0  0  0  0  0  0  0
    9.9232    3.7613   -0.4047 C   0  0  0  0  0  0  0  0  0  0  0  0
   10.7948    4.4337    0.1489 O   0  0  0  0  0  0  0  0  0  0  0  0
    9.3837    4.0765   -1.6301 N   0  0  0  0  0  0  0  0  0  0  0  0
    9.7032    5.1495   -2.4905 C   0  0  0  0  0  0  0  0  0  0  0  0
   10.6505    6.1325   -2.2182 C   0  0  0  0  0  0  0  0  0  0  0  0
   10.8980    7.1627   -3.1453 C   0  0  0  0  0  0  0  0  0  0  0  0
   10.2212    7.2528   -4.3748 C   0  0  0  0  0  0  0  0  0  0  0  0
    9.2655    6.2573   -4.6212 C   0  0  0  0  0  0  0  0  0  0  0  0
    9.0155    5.2258   -3.7032 C   0  0  0  0  0  0  0  0  0  0  0  0
   10.4631    8.3056   -5.2691 N   0  0  0  0  0  0  0  0  0  0  0  0
   11.8692    8.6608   -5.4710 C   0  0  0  0  0  0  0  0  0  0  0  0
    9.6155    8.4521   -6.4532 C   0  0  0  0  0  0  0  0  0  0  0  0
    5.0998    3.7725    7.5692 C   0  0  0  0  0  0  0  0  0  0  0  0
    5.5750    4.9521    8.4413 C   0  0  0  0  0  0  0  0  0  0  0  0
    5.3421    4.6699    9.9264 C   0  0  0  0  0  0  0  0  0  0  0  0
    6.0004    3.3592   10.3526 C   0  0  0  0  0  0  0  0  0  0  0  0
    5.5520    2.1872    9.4829 C   0  0  0  0  0  0  0  0  0  0  0  0
    5.7774    2.4642    7.9969 C   0  0  0  0  0  0  0  0  0  0  0  0
   -0.6942    2.1764   -1.2967 H   0  0  0  0  0  0  0  0  0  0  0  0
   -0.5034    3.3929   -0.0359 H   0  0  0  0  0  0  0  0  0  0  0  0
   -0.6049    1.6649    0.3937 H   0  0  0  0  0  0  0  0  0  0  0  0
    1.2282    0.7300   -1.9203 H   0  0  0  0  0  0  0  0  0  0  0  0
    1.3992    0.1514   -0.2552 H   0  0  0  0  0  0  0  0  0  0  0  0
    2.7701    0.9261   -1.0884 H   0  0  0  0  0  0  0  0  0  0  0  0
    1.2783    1.0633    1.9638 H   0  0  0  0  0  0  0  0  0  0  0  0
    2.5340    1.7865    3.9022 H   0  0  0  0  0  0  0  0  0  0  0  0
    3.9763    5.2065    1.6949 H   0  0  0  0  0  0  0  0  0  0  0  0
    2.7552    4.4173   -0.2828 H   0  0  0  0  0  0  0  0  0  0  0  0
    4.5842    4.9323    3.9231 H   0  0  0  0  0  0  0  0  0  0  0  0
    7.2151    4.5862    6.3983 H   0  0  0  0  0  0  0  0  0  0  0  0
    6.2321    5.6548    5.3993 H   0  0  0  0  0  0  0  0  0  0  0  0
    6.4619    4.0741    3.4936 H   0  0  0  0  0  0  0  0  0  0  0  0
    6.5788    1.9104    4.7250 H   0  0  0  0  0  0  0  0  0  0  0  0
    8.1730    2.3402    5.3409 H   0  0  0  0  0  0  0  0  0  0  0  0
    7.3504    1.9932    2.4173 H   0  0  0  0  0  0  0  0  0  0  0  0
    8.3681    0.8977    3.3415 H   0  0  0  0  0  0  0  0  0  0  0  0
   10.0924    2.6009    3.5863 H   0  0  0  0  0  0  0  0  0  0  0  0
    8.3920    4.4776    1.8828 H   0  0  0  0  0  0  0  0  0  0  0  0
    9.9870    4.8140    2.5644 H   0  0  0  0  0  0  0  0  0  0  0  0
    8.1507    5.8320    3.8691 H   0  0  0  0  0  0  0  0  0  0  0  0
    9.1251    4.7192    4.8278 H   0  0  0  0  0  0  0  0  0  0  0  0
   10.0830    1.1154    1.5386 H   0  0  0  0  0  0  0  0  0  0  0  0
   11.0685    2.5441    1.4922 H   0  0  0  0  0  0  0  0  0  0  0  0
    8.3172    0.8517    0.4013 H   0  0  0  0  0  0  0  0  0  0  0  0
    9.8754    0.4126   -1.4014 H   0  0  0  0  0  0  0  0  0  0  0  0
    9.1517    1.6207   -2.4324 H   0  0  0  0  0  0  0  0  0  0  0  0
    7.8772   -0.9473   -1.4379 H   0  0  0  0  0  0  0  0  0  0  0  0
    8.2524   -0.4978   -3.0989 H   0  0  0  0  0  0  0  0  0  0  0  0
    5.8143   -0.3149   -2.5606 H   0  0  0  0  0  0  0  0  0  0  0  0
    6.4991    1.2165   -3.1027 H   0  0  0  0  0  0  0  0  0  0  0  0
    5.9222    0.3842   -0.2139 H   0  0  0  0  0  0  0  0  0  0  0  0
    5.0477    1.5961   -1.1528 H   0  0  0  0  0  0  0  0  0  0  0  0
    6.6590    2.6315    0.4347 H   0  0  0  0  0  0  0  0  0  0  0  0
    6.9760    3.0576   -1.2264 H   0  0  0  0  0  0  0  0  0  0  0  0
    8.6753    3.4601   -1.9841 H   0  0  0  0  0  0  0  0  0  0  0  0
   11.2139    6.1403   -1.2918 H   0  0  0  0  0  0  0  0  0  0  0  0
   11.6294    7.9169   -2.8618 H   0  0  0  0  0  0  0  0  0  0  0  0
    8.6995    6.2461   -5.5471 H   0  0  0  0  0  0  0  0  0  0  0  0
    8.2714    4.4784   -3.9667 H   0  0  0  0  0  0  0  0  0  0  0  0
   12.3216    9.0689   -4.5629 H   0  0  0  0  0  0  0  0  0  0  0  0
   11.9713    9.4401   -6.2349 H   0  0  0  0  0  0  0  0  0  0  0  0
   12.4486    7.7939   -5.8064 H   0  0  0  0  0  0  0  0  0  0  0  0
    8.5509    8.4291   -6.1927 H   0  0  0  0  0  0  0  0  0  0  0  0
    9.8284    7.6740   -7.1955 H   0  0  0  0  0  0  0  0  0  0  0  0
    9.7867    9.4259   -6.9277 H   0  0  0  0  0  0  0  0  0  0  0  0
    4.0283    3.6634    7.7876 H   0  0  0  0  0  0  0  0  0  0  0  0
    5.0524    5.8717    8.1525 H   0  0  0  0  0  0  0  0  0  0  0  0
    6.6446    5.1420    8.3031 H   0  0  0  0  0  0  0  0  0  0  0  0
    4.2651    4.6263   10.1297 H   0  0  0  0  0  0  0  0  0  0  0  0
    5.7457    5.4944   10.5259 H   0  0  0  0  0  0  0  0  0  0  0  0
    5.7648    3.1526   11.4029 H   0  0  0  0  0  0  0  0  0  0  0  0
    7.0902    3.4627   10.2842 H   0  0  0  0  0  0  0  0  0  0  0  0
    4.4866    1.9920    9.6589 H   0  0  0  0  0  0  0  0  0  0  0  0
    6.0948    1.2813    9.7759 H   0  0  0  0  0  0  0  0  0  0  0  0
    5.3890    1.6240    7.4085 H   0  0  0  0  0  0  0  0  0  0  0  0
    6.8538    2.5189    7.7948 H   0  0  0  0  0  0  0  0  0  0  0  0
  1  2  1  0  0  0  0
  1 47  1  0  0  0  0
  1 48  1  0  0  0  0
  1 49  1  0  0  0  0
  2  3  1  0  0  0  0
  2  4  1  0  0  0  0
  3 50  1  0  0  0  0
  3 51  1  0  0  0  0
  3 52  1  0  0  0  0
  4  5  2  0  0  0  0
  4  9  1  0  0  0  0
  5  6  1  0  0  0  0
  5 53  1  0  0  0  0
  6  7  2  0  0  0  0
  6 54  1  0  0  0  0
  7  8  1  0  0  0  0
  7 10  1  0  0  0  0
  8  9  2  0  0  0  0
  8 55  1  0  0  0  0
  9 56  1  0  0  0  0
 10 11  1  0  0  0  0
 10 57  1  0  0  0  0
 11 12  2  0  0  0  0
 11 13  1  0  0  0  0
 13 14  1  0  0  0  0
 13 41  1  0  0  0  0
 14 15  1  0  0  0  0
 14 58  1  0  0  0  0
 14 59  1  0  0  0  0
 15 16  1  0  0  0  0
 15 20  1  0  0  0  0
 15 60  1  0  0  0  0
 16 17  1  0  0  0  0
 16 61  1  0  0  0  0
 16 62  1  0  0  0  0
 17 18  1  0  0  0  0
 17 63  1  0  0  0  0
 17 64  1  0  0  0  0
 18 19  1  0  0  0  0
 18 21  1  0  0  0  0
 18 65  1  0  0  0  0
 19 20  1  0  0  0  0
 19 66  1  0  0  0  0
 19 67  1  0  0  0  0
 20 68  1  0  0  0  0
 20 69  1  0  0  0  0
 21 22  1  0  0  0  0
 21 70  1  0  0  0  0
 21 71  1  0  0  0  0
 22 23  1  0  0  0  0
 22 29  1  0  0  0  0
 23 24  1  0  0  0  0
 23 28  1  0  0  0  0
 23 72  1  0  0  0  0
 24 25  1  0  0  0  0
 24 73  1  0  0  0  0
 24 74  1  0  0  0  0
 25 26  1  0  0  0  0
 25 75  1  0  0  0  0
 25 76  1  0  0  0  0
 26 27  1  0  0  0  0
 26 77  1  0  0  0  0
 26 78  1  0  0  0  0
 27 28  1  0  0  0  0
 27 79  1  0  0  0  0
 27 80  1  0  0  0  0
 28 81  1  0  0  0  0
 28 82  1  0  0  0  0
 29 30  2  0  0  0  0
 29 31  1  0  0  0  0
 31 32  1  0  0  0  0
 31 83  1  0  0  0  0
 32 33  2  0  0  0  0
 32 37  1  0  0  0  0
 33 34  1  0  0  0  0
 33 84  1  0  0  0  0
 34 35  2  0  0  0  0
 34 85  1  0  0  0  0
 35 36  1  0  0  0  0
 35 38  1  0  0  0  0
 36 37  2  0  0  0  0
 36 86  1  0  0  0  0
 37 87  1  0  0  0  0
 38 39  1  0  0  0  0
 38 40  1  0  0  0  0
 39 88  1  0  0  0  0
 39 89  1  0  0  0  0
 39 90  1  0  0  0  0
 40 91  1  0  0  0  0
 40 92  1  0  0  0  0
 40 93  1  0  0  0  0
 41 42  1  0  0  0  0
 41 46  1  0  0  0  0
 41 94  1  0  0  0  0
 42 43  1  0  0  0  0
 42 95  1  0  0  0  0
 42 96  1  0  0  0  0
 43 44  1  0  0  0  0
 43 97  1  0  0  0  0
 43 98  1  0  0  0  0
 44 45  1  0  0  0  0
 44 99  1  0  0  0  0
 44100  1  0  0  0  0
 45 46  1  0  0  0  0
 45101  1  0  0  0  0
 45102  1  0  0  0  0
 46103  1  0  0  0  0
 46104  1  0  0  0  0
M  END
