
 OpenBabel10072619583D

110111  0  0  1  0  0  0  0  0999 V2000
   -8.0419   -0.2594    2.7266 C   0  0  0  0  0  0  0  0  0  0  0  0
   -7.5655    0.7141    1.8528 C   0  0  0  0  0  0  0  0  0  0  0  0
   -6.6507    0.3699    0.8552 C   0  0  0  0  0  0  0  0  0  0  0  0
   -6.1806   -0.9473    0.7371 C   0  0  0  0  0  0  0  0  0  0  0  0
   -6.6714   -1.9172    1.6198 C   0  0  0  0  0  0  0  0  0  0  0  0
   -7.5990   -1.5752    2.6066 C   0  0  0  0  0  0  0  0  0  0  0  0
   -5.1786   -1.3247   -0.3335 C   0  0  0  0  0  0  0  0  0  0  0  0
   -3.8734   -0.5263   -0.2530 C   0  0  1  0  0  0  0  0  0  0  0  0
   -2.9853   -0.9200    0.9418 C   0  0  0  0  0  0  0  0  0  0  0  0
   -3.0572   -1.9822    1.5525 O   0  0  0  0  0  0  0  0  0  0  0  0
   -1.9699   -0.0072    1.1288 N   0  0  0  0  0  0  0  0  0  0  0  0
   -0.8659   -0.1600    2.0882 C   0  0  2  0  0  0  0  0  0  0  0  0
   -0.4013    1.3143    2.2474 C   0  0  0  0  0  0  0  0  0  0  0  0
   -1.2293    2.2274    2.3663 O   0  0  0  0  0  0  0  0  0  0  0  0
    0.9340    1.6069    2.1228 N   0  0  0  0  0  0  0  0  0  0  0  0
    1.2997    2.6935    1.2121 C   0  0  2  0  0  0  0  0  0  0  0  0
    1.8133    1.9046   -0.0137 C   0  0  0  0  0  0  0  0  0  0  0  0
    2.5150    0.9061    0.1389 O   0  0  0  0  0  0  0  0  0  0  0  0
    1.3684    2.3466   -1.2391 N   0  0  0  0  0  0  0  0  0  0  0  0
    1.1661    1.4512   -2.4037 C   0  0  2  0  0  0  0  0  0  0  0  0
   -0.3278    1.0026   -2.3043 C   0  0  0  0  0  0  0  0  0  0  0  0
   -1.1330    1.6126   -1.5946 O   0  0  0  0  0  0  0  0  0  0  0  0
   -0.7360   -0.0262   -3.1191 N   0  0  0  0  0  0  0  0  0  0  0  0
   -2.1123   -0.1039   -3.6378 C   0  0  2  0  0  0  0  0  0  0  0  0
   -3.2516   -0.0339   -2.5948 C   0  0  0  0  0  0  0  0  0  0  0  0
   -4.3419    0.4676   -2.8726 O   0  0  0  0  0  0  0  0  0  0  0  0
   -3.0153   -0.7227   -1.4306 N   0  0  0  0  0  0  0  0  0  0  0  0
   -2.2299   -1.4153   -4.4374 C   0  0  0  0  0  0  0  0  0  0  0  0
   -3.5702   -1.6124   -5.1403 C   0  0  0  0  0  0  0  0  0  0  0  0
   -3.8703   -0.5382   -6.1816 C   0  0  0  0  0  0  0  0  0  0  0  0
   -5.2008   -0.7761   -6.7234 N   0  0  0  0  0  0  0  0  0  0  0  0
   -6.2031   -0.2232   -6.1543 C   0  0  0  0  0  0  0  0  0  0  0  0
   -6.2797    0.6039   -5.0845 N   0  0  0  0  0  0  0  0  0  0  0  0
   -7.4338   -0.4269   -6.6695 N   0  0  0  0  0  0  0  0  0  0  0  0
    2.2372    0.3540   -2.5592 C   0  0  0  0  0  0  0  0  0  0  0  0
    2.3667   -0.3772   -3.9016 C   0  0  0  0  0  0  0  0  0  0  0  0
    2.4178    0.5255   -5.1300 C   0  0  0  0  0  0  0  0  0  0  0  0
    2.3175   -0.3300   -6.3057 N   0  0  0  0  0  0  0  0  0  0  0  0
    2.3779    0.2145   -7.4611 C   0  0  0  0  0  0  0  0  0  0  0  0
    2.5311    1.5121   -7.8052 N   0  0  0  0  0  0  0  0  0  0  0  0
    2.2669   -0.5483   -8.5681 N   0  0  0  0  0  0  0  0  0  0  0  0
    2.3676    3.5917    1.8201 C   0  0  0  0  0  0  0  0  0  0  0  0
    2.6043    4.8312    0.9588 C   0  0  0  0  0  0  0  0  0  0  0  0
    3.5549    5.8189    1.6366 C   0  0  0  0  0  0  0  0  0  0  0  0
    3.7403    7.0961    0.8165 C   0  0  0  0  0  0  0  0  0  0  0  0
    4.3625    6.8142   -0.4727 N   0  0  0  0  0  0  0  0  0  0  0  0
    0.1338   -1.1653    1.4978 C   0  0  0  0  0  0  0  0  0  0  0  0
    1.2176   -1.6678    2.4489 C   0  0  0  0  0  0  0  0  0  0  0  0
    0.6950   -2.5929    3.5421 C   0  0  0  0  0  0  0  0  0  0  0  0
    1.8648   -3.1576    4.2041 N   0  0  0  0  0  0  0  0  0  0  0  0
    1.7024   -3.8391    5.2708 C   0  0  0  0  0  0  0  0  0  0  0  0
    0.5739   -4.1426    5.9419 N   0  0  0  0  0  0  0  0  0  0  0  0
    2.7700   -4.3751    5.8967 N   0  0  0  0  0  0  0  0  0  0  0  0
   -8.7542    0.0068    3.5030 H   0  0  0  0  0  0  0  0  0  0  0  0
   -7.9106    1.7411    1.9432 H   0  0  0  0  0  0  0  0  0  0  0  0
   -6.3094    1.1428    0.1702 H   0  0  0  0  0  0  0  0  0  0  0  0
   -6.3331   -2.9488    1.5491 H   0  0  0  0  0  0  0  0  0  0  0  0
   -7.9740   -2.3377    3.2840 H   0  0  0  0  0  0  0  0  0  0  0  0
   -5.6665   -1.1622   -1.3027 H   0  0  0  0  0  0  0  0  0  0  0  0
   -4.9609   -2.3993   -0.2903 H   0  0  0  0  0  0  0  0  0  0  0  0
   -4.0849    0.5488   -0.1841 H   0  0  0  0  0  0  0  0  0  0  0  0
   -2.0501    0.8934    0.6556 H   0  0  0  0  0  0  0  0  0  0  0  0
   -1.2840   -0.5084    3.0377 H   0  0  0  0  0  0  0  0  0  0  0  0
    1.5918    0.8374    2.0561 H   0  0  0  0  0  0  0  0  0  0  0  0
    0.4083    3.2672    0.9333 H   0  0  0  0  0  0  0  0  0  0  0  0
    0.6777    3.0891   -1.1935 H   0  0  0  0  0  0  0  0  0  0  0  0
    1.2058    2.1351   -3.2582 H   0  0  0  0  0  0  0  0  0  0  0  0
   -0.0693   -0.2725   -3.8333 H   0  0  0  0  0  0  0  0  0  0  0  0
   -2.2152    0.7709   -4.2877 H   0  0  0  0  0  0  0  0  0  0  0  0
   -2.0419   -0.9570   -1.2569 H   0  0  0  0  0  0  0  0  0  0  0  0
   -2.0699   -2.2694   -3.7644 H   0  0  0  0  0  0  0  0  0  0  0  0
   -1.4261   -1.4659   -5.1851 H   0  0  0  0  0  0  0  0  0  0  0  0
   -4.3756   -1.6576   -4.3983 H   0  0  0  0  0  0  0  0  0  0  0  0
   -3.5649   -2.5934   -5.6330 H   0  0  0  0  0  0  0  0  0  0  0  0
   -3.1426   -0.6151   -6.9969 H   0  0  0  0  0  0  0  0  0  0  0  0
   -3.7634    0.4781   -5.7885 H   0  0  0  0  0  0  0  0  0  0  0  0
   -5.4846    0.5720   -4.4454 H   0  0  0  0  0  0  0  0  0  0  0  0
   -7.1315    0.4845   -4.5489 H   0  0  0  0  0  0  0  0  0  0  0  0
   -7.3532   -0.9110   -7.5592 H   0  0  0  0  0  0  0  0  0  0  0  0
   -7.9506    0.4357   -6.7740 H   0  0  0  0  0  0  0  0  0  0  0  0
    2.0801   -0.4196   -1.7987 H   0  0  0  0  0  0  0  0  0  0  0  0
    3.2162    0.8070   -2.3584 H   0  0  0  0  0  0  0  0  0  0  0  0
    1.5750   -1.1241   -4.0093 H   0  0  0  0  0  0  0  0  0  0  0  0
    3.2820   -0.9834   -3.8745 H   0  0  0  0  0  0  0  0  0  0  0  0
    3.3546    1.0939   -5.1265 H   0  0  0  0  0  0  0  0  0  0  0  0
    1.5766    1.2232   -5.1345 H   0  0  0  0  0  0  0  0  0  0  0  0
    2.8823    2.1086   -7.0681 H   0  0  0  0  0  0  0  0  0  0  0  0
    3.0881    1.6228   -8.6458 H   0  0  0  0  0  0  0  0  0  0  0  0
    1.9787   -1.4875   -8.3108 H   0  0  0  0  0  0  0  0  0  0  0  0
    1.6403   -0.1566   -9.2610 H   0  0  0  0  0  0  0  0  0  0  0  0
    3.3057    3.0404    1.9529 H   0  0  0  0  0  0  0  0  0  0  0  0
    2.0417    3.9016    2.8200 H   0  0  0  0  0  0  0  0  0  0  0  0
    1.6456    5.3285    0.7674 H   0  0  0  0  0  0  0  0  0  0  0  0
    3.0099    4.5223   -0.0108 H   0  0  0  0  0  0  0  0  0  0  0  0
    4.5253    5.3384    1.8144 H   0  0  0  0  0  0  0  0  0  0  0  0
    3.1509    6.0893    2.6204 H   0  0  0  0  0  0  0  0  0  0  0  0
    4.3642    7.7998    1.3775 H   0  0  0  0  0  0  0  0  0  0  0  0
    2.7703    7.5780    0.6499 H   0  0  0  0  0  0  0  0  0  0  0  0
    5.2897    6.4181   -0.3192 H   0  0  0  0  0  0  0  0  0  0  0  0
    4.5058    7.6894   -0.9745 H   0  0  0  0  0  0  0  0  0  0  0  0
    0.6111   -0.7283    0.6135 H   0  0  0  0  0  0  0  0  0  0  0  0
   -0.4039   -2.0439    1.1154 H   0  0  0  0  0  0  0  0  0  0  0  0
    1.7686   -0.8477    2.9151 H   0  0  0  0  0  0  0  0  0  0  0  0
    1.9555   -2.2160    1.8494 H   0  0  0  0  0  0  0  0  0  0  0  0
    0.0991   -3.3930    3.0909 H   0  0  0  0  0  0  0  0  0  0  0  0
    0.0680   -2.0321    4.2443 H   0  0  0  0  0  0  0  0  0  0  0  0
   -0.2711   -4.0100    5.4017 H   0  0  0  0  0  0  0  0  0  0  0  0
    0.6047   -5.0721    6.3434 H   0  0  0  0  0  0  0  0  0  0  0  0
    3.6213   -3.9954    5.4946 H   0  0  0  0  0  0  0  0  0  0  0  0
    2.7419   -4.2162    6.8946 H   0  0  0  0  0  0  0  0  0  0  0  0
  1  2  2  0  0  0  0
  1  6  1  0  0  0  0
  1 54  1  0  0  0  0
  2  3  1  0  0  0  0
  2 55  1  0  0  0  0
  3  4  2  0  0  0  0
  3 56  1  0  0  0  0
  4  5  1  0  0  0  0
  4  7  1  0  0  0  0
  5  6  2  0  0  0  0
  5 57  1  0  0  0  0
  6 58  1  0  0  0  0
  7 59  1  0  0  0  0
  7 60  1  0  0  0  0
  8  9  1  0  0  0  0
  8 27  1  0  0  0  0
  8  7  1  0  0  0  0
  8 61  1  1  0  0  0
  9 10  2  0  0  0  0
  9 11  1  0  0  0  0
 11 12  1  0  0  0  0
 11 62  1  0  0  0  0
 12 13  1  0  0  0  0
 12 47  1  0  0  0  0
 12 63  1  1  0  0  0
 13 14  2  0  0  0  0
 13 15  1  0  0  0  0
 15 16  1  0  0  0  0
 15 64  1  0  0  0  0
 16 17  1  0  0  0  0
 16 42  1  0  0  0  0
 16 65  1  6  0  0  0
 17 18  2  0  0  0  0
 17 19  1  0  0  0  0
 19 20  1  0  0  0  0
 19 66  1  0  0  0  0
 20 21  1  0  0  0  0
 20 35  1  0  0  0  0
 20 67  1  6  0  0  0
 21 22  2  0  0  0  0
 21 23  1  0  0  0  0
 23 24  1  0  0  0  0
 23 68  1  0  0  0  0
 24 25  1  0  0  0  0
 24 28  1  0  0  0  0
 24 69  1  6  0  0  0
 25 26  2  0  0  0  0
 25 27  1  0  0  0  0
 27 70  1  0  0  0  0
 28 29  1  0  0  0  0
 28 71  1  0  0  0  0
 28 72  1  0  0  0  0
 29 30  1  0  0  0  0
 29 73  1  0  0  0  0
 29 74  1  0  0  0  0
 30 31  1  0  0  0  0
 30 75  1  0  0  0  0
 30 76  1  0  0  0  0
 31 32  2  0  0  0  0
 32 33  1  0  0  0  0
 32 34  1  0  0  0  0
 33 77  1  0  0  0  0
 33 78  1  0  0  0  0
 34 79  1  0  0  0  0
 34 80  1  0  0  0  0
 35 36  1  0  0  0  0
 35 81  1  0  0  0  0
 35 82  1  0  0  0  0
 36 37  1  0  0  0  0
 36 83  1  0  0  0  0
 36 84  1  0  0  0  0
 37 38  1  0  0  0  0
 37 85  1  0  0  0  0
 37 86  1  0  0  0  0
 38 39  2  0  0  0  0
 39 40  1  0  0  0  0
 39 41  1  0  0  0  0
 40 87  1  0  0  0  0
 40 88  1  0  0  0  0
 41 89  1  0  0  0  0
 41 90  1  0  0  0  0
 42 43  1  0  0  0  0
 42 91  1  0  0  0  0
 42 92  1  0  0  0  0
 43 44  1  0  0  0  0
 43 93  1  0  0  0  0
 43 94  1  0  0  0  0
 44 45  1  0  0  0  0
 44 95  1  0  0  0  0
 44 96  1  0  0  0  0
 45 46  1  0  0  0  0
 45 97  1  0  0  0  0
 45 98  1  0  0  0  0
 46 99  1  0  0  0  0
 46100  1  0  0  0  0
 47 48  1  0  0  0  0
 47101  1  0  0  0  0
 47102  1  0  0  0  0
 48 49  1  0  0  0  0
 48103  1  0  0  0  0
 48104  1  0  0  0  0
 49 50  1  0  0  0  0
 49105  1  0  0  0  0
 49106  1  0  0  0  0
 50 51  2  0  0  0  0
 51 52  1  0  0  0  0
 51 53  1  0  0  0  0
 52107  1  0  0  0  0
 52108  1  0  0  0  0
 53109  1  0  0  0  0
 53110  1  0  0  0  0
M  END
