
 OpenBabel10072619433D

 59 61  0  0  0  0  0  0  0  0999 V2000
    7.8469   -2.9355   -1.5446 C   0  0  0  0  0  0  0  0  0  0  0  0
    6.7268   -2.1857   -2.1703 C   0  0  0  0  0  0  0  0  0  0  0  0
    5.4058   -2.5511   -2.3756 C   0  0  0  0  0  0  0  0  0  0  0  0
    4.7515   -1.4414   -2.9988 C   0  0  0  0  0  0  0  0  0  0  0  0
    5.6924   -0.4296   -3.1393 C   0  0  0  0  0  0  0  0  0  0  0  0
    6.8883   -0.9126   -2.6610 N   0  0  0  0  0  0  0  0  0  0  0  0
    5.3751    0.8275   -3.6816 C   0  0  0  0  0  0  0  0  0  0  0  0
    4.0584    1.0360   -4.1060 C   0  0  0  0  0  0  0  0  0  0  0  0
    3.1049    0.0332   -3.9859 C   0  0  0  0  0  0  0  0  0  0  0  0
    3.4294   -1.2099   -3.4335 C   0  0  0  0  0  0  0  0  0  0  0  0
    1.4936    0.3158   -4.5255 Cl  0  0  0  0  0  0  0  0  0  0  0  0
    4.7671   -3.8463   -1.9878 C   0  0  0  0  0  0  0  0  0  0  0  0
    3.9332   -3.7102   -0.7015 C   0  0  0  0  0  0  0  0  0  0  0  0
    3.4374   -5.0330   -0.2602 N   0  0  0  0  0  0  0  0  0  0  0  0
    2.0668   -5.1449    0.2730 C   0  0  0  0  0  0  0  0  0  0  0  0
    1.0417   -4.1361   -0.1840 C   0  0  0  0  0  0  0  0  0  0  0  0
    0.3732   -4.2874   -1.4037 C   0  0  0  0  0  0  0  0  0  0  0  0
   -0.6177   -3.3768   -1.8015 C   0  0  0  0  0  0  0  0  0  0  0  0
   -0.9647   -2.3022   -0.9504 C   0  0  0  0  0  0  0  0  0  0  0  0
   -0.2723   -2.1174    0.2593 C   0  0  0  0  0  0  0  0  0  0  0  0
    0.7173   -3.0428    0.6273 C   0  0  0  0  0  0  0  0  0  0  0  0
   -0.4361   -1.1469    1.2131 O   0  0  0  0  0  0  0  0  0  0  0  0
   -1.2831   -0.0385    0.9455 C   0  0  0  0  0  0  0  0  0  0  0  0
   -1.9145   -1.3719   -1.2995 O   0  0  0  0  0  0  0  0  0  0  0  0
   -3.1516   -1.9035   -1.7627 C   0  0  0  0  0  0  0  0  0  0  0  0
   -1.3075   -3.4953   -2.9853 O   0  0  0  0  0  0  0  0  0  0  0  0
   -0.7384   -4.3252   -3.9871 C   0  0  0  0  0  0  0  0  0  0  0  0
    4.3465   -5.9151    0.3798 C   0  0  0  0  0  0  0  0  0  0  0  0
    5.5701   -5.4454    1.4297 S   0  0  0  0  0  0  0  0  0  0  0  0
    4.0441   -7.2289    0.0628 N   0  0  0  0  0  0  0  0  0  0  0  0
    4.7315   -8.3903    0.5850 C   0  0  0  0  0  0  0  0  0  0  0  0
    7.4814   -3.5335   -0.7043 H   0  0  0  0  0  0  0  0  0  0  0  0
    8.6169   -2.2582   -1.1630 H   0  0  0  0  0  0  0  0  0  0  0  0
    8.3083   -3.6121   -2.2710 H   0  0  0  0  0  0  0  0  0  0  0  0
    7.7511   -0.3889   -2.6403 H   0  0  0  0  0  0  0  0  0  0  0  0
    6.1181    1.6089   -3.7695 H   0  0  0  0  0  0  0  0  0  0  0  0
    3.7791    2.0023   -4.5238 H   0  0  0  0  0  0  0  0  0  0  0  0
    2.6707   -1.9771   -3.3317 H   0  0  0  0  0  0  0  0  0  0  0  0
    5.5377   -4.6172   -1.8685 H   0  0  0  0  0  0  0  0  0  0  0  0
    4.1236   -4.1982   -2.8070 H   0  0  0  0  0  0  0  0  0  0  0  0
    3.1027   -3.0318   -0.9107 H   0  0  0  0  0  0  0  0  0  0  0  0
    4.5182   -3.2420    0.0977 H   0  0  0  0  0  0  0  0  0  0  0  0
    2.1252   -5.1300    1.3701 H   0  0  0  0  0  0  0  0  0  0  0  0
    1.6934   -6.1481    0.0224 H   0  0  0  0  0  0  0  0  0  0  0  0
    0.6204   -5.1558   -2.0026 H   0  0  0  0  0  0  0  0  0  0  0  0
    1.2391   -2.9029    1.5728 H   0  0  0  0  0  0  0  0  0  0  0  0
   -1.1857    0.6568    1.7866 H   0  0  0  0  0  0  0  0  0  0  0  0
   -2.3331   -0.3417    0.9075 H   0  0  0  0  0  0  0  0  0  0  0  0
   -0.9696    0.5003    0.0469 H   0  0  0  0  0  0  0  0  0  0  0  0
   -3.9554   -1.3058   -1.3216 H   0  0  0  0  0  0  0  0  0  0  0  0
   -3.3183   -2.9454   -1.4637 H   0  0  0  0  0  0  0  0  0  0  0  0
   -3.2087   -1.7894   -2.8497 H   0  0  0  0  0  0  0  0  0  0  0  0
   -1.3481   -4.2313   -4.8891 H   0  0  0  0  0  0  0  0  0  0  0  0
   -0.7584   -5.3785   -3.6920 H   0  0  0  0  0  0  0  0  0  0  0  0
    0.2795   -4.0145   -4.2376 H   0  0  0  0  0  0  0  0  0  0  0  0
    3.6116   -7.3353   -0.8482 H   0  0  0  0  0  0  0  0  0  0  0  0
    5.7114   -8.4798    0.1070 H   0  0  0  0  0  0  0  0  0  0  0  0
    4.1283   -9.2677    0.3572 H   0  0  0  0  0  0  0  0  0  0  0  0
    4.8435   -8.3044    1.6690 H   0  0  0  0  0  0  0  0  0  0  0  0
  1  2  1  0  0  0  0
  1 32  1  0  0  0  0
  1 33  1  0  0  0  0
  1 34  1  0  0  0  0
  2  3  2  0  0  0  0
  2  6  1  0  0  0  0
  3  4  1  0  0  0  0
  3 12  1  0  0  0  0
  4  5  2  0  0  0  0
  4 10  1  0  0  0  0
  5  6  1  0  0  0  0
  5  7  1  0  0  0  0
  6 35  1  0  0  0  0
  7  8  2  0  0  0  0
  7 36  1  0  0  0  0
  8  9  1  0  0  0  0
  8 37  1  0  0  0  0
  9 10  2  0  0  0  0
  9 11  1  0  0  0  0
 10 38  1  0  0  0  0
 12 13  1  0  0  0  0
 12 39  1  0  0  0  0
 12 40  1  0  0  0  0
 13 14  1  0  0  0  0
 13 41  1  0  0  0  0
 13 42  1  0  0  0  0
 14 15  1  0  0  0  0
 14 28  1  0  0  0  0
 15 16  1  0  0  0  0
 15 43  1  0  0  0  0
 15 44  1  0  0  0  0
 16 17  2  0  0  0  0
 16 21  1  0  0  0  0
 17 18  1  0  0  0  0
 17 45  1  0  0  0  0
 18 19  2  0  0  0  0
 18 26  1  0  0  0  0
 19 20  1  0  0  0  0
 19 24  1  0  0  0  0
 20 21  2  0  0  0  0
 20 22  1  0  0  0  0
 21 46  1  0  0  0  0
 22 23  1  0  0  0  0
 23 47  1  0  0  0  0
 23 48  1  0  0  0  0
 23 49  1  0  0  0  0
 24 25  1  0  0  0  0
 25 50  1  0  0  0  0
 25 51  1  0  0  0  0
 25 52  1  0  0  0  0
 26 27  1  0  0  0  0
 27 53  1  0  0  0  0
 27 54  1  0  0  0  0
 27 55  1  0  0  0  0
 28 29  2  0  0  0  0
 28 30  1  0  0  0  0
 30 31  1  0  0  0  0
 30 56  1  0  0  0  0
 31 57  1  0  0  0  0
 31 58  1  0  0  0  0
 31 59  1  0  0  0  0
M  END
