
 OpenBabel10072620173D

126129  0  0  1  0  0  0  0  0999 V2000
    1.8411    2.2833   -2.5843 C   0  0  0  0  0  0  0  0  0  0  0  0
    3.6185    2.7000   -3.2010 C   0  0  3  0  0  0  0  0  0  0  0  0
    4.5799    4.0918   -4.6243 C   0  0  0  0  0  0  0  0  0  0  0  0
    6.1749    5.3189   -5.5135 C   0  0  3  0  0  0  0  0  0  0  0  0
    7.8480    6.2832   -5.1287 C   0  0  3  0  0  0  0  0  0  0  0  0
    9.6307    6.5513   -5.7255 C   0  0  3  0  0  0  0  0  0  0  0  0
   10.5366    5.2281   -6.0202 C   0  0  0  0  0  0  0  0  0  0  0  0
   10.1519    4.1103   -5.0399 C   0  0  3  0  0  0  0  0  0  0  0  0
    8.7091    4.2749   -5.1452 C   0  0  3  0  0  0  0  0  0  0  0  0
    8.4279    5.4293   -4.2763 O   0  0  0  0  0  0  0  0  0  0  0  0
    7.8479    3.5372   -4.2918 C   0  0  0  0  0  0  0  0  0  0  0  0
    7.0842    4.0831   -3.5278 O   0  0  0  0  0  0  0  0  0  0  0  0
    7.9040    2.1013   -4.3101 C   0  0  0  0  0  0  0  0  0  0  0  0
    8.6722    1.5329   -5.0596 O   0  0  0  0  0  0  0  0  0  0  0  0
    7.1045    1.5911   -3.3305 N   0  0  0  0  0  0  0  0  0  0  0  0
    7.1745    0.1386   -3.2702 C   0  0  0  0  0  0  0  0  0  0  0  0
    6.2304   -0.6738   -4.1761 C   0  0  0  0  0  0  0  0  0  0  0  0
    4.9008   -0.0945   -4.0476 C   0  0  0  0  0  0  0  0  0  0  0  0
    4.8940    1.3922   -4.3503 C   0  0  0  0  0  0  0  0  0  0  0  0
    5.7960    2.2975   -3.1107 C   0  0  3  0  0  0  0  0  0  0  0  0
    5.3416    4.0815   -2.4570 C   0  0  0  0  0  0  0  0  0  0  0  0
    4.3593    4.7966   -2.6845 O   0  0  0  0  0  0  0  0  0  0  0  0
    6.0720    4.6481   -1.5281 O   0  0  0  0  0  0  0  0  0  0  0  0
    5.7608    4.5617   -0.1422 C   0  0  3  0  0  0  0  0  0  0  0  0
    4.5618    3.8455    0.7088 C   0  0  3  0  0  0  0  0  0  0  0  0
    5.0187    3.3365    2.1088 C   0  0  3  0  0  0  0  0  0  0  0  0
    3.9584    2.3804    2.5955 C   0  0  0  0  0  0  0  0  0  0  0  0
    4.0999    1.0674    1.8798 C   0  0  0  0  0  0  0  0  0  0  0  0
    3.1890    0.2311    1.9711 O   0  0  0  0  0  0  0  0  0  0  0  0
    5.1359    0.9464    0.7591 C   0  0  3  0  0  0  0  0  0  0  0  0
    5.3436   -0.2744    0.0834 C   0  0  0  0  0  0  0  0  0  0  0  0
    4.6942   -0.5011   -1.0773 C   0  0  0  0  0  0  0  0  0  0  0  0
    3.6727    0.8218   -2.0518 C   0  0  0  0  0  0  0  0  0  0  0  0
    4.7565   -2.1256   -0.7909 C   0  0  0  0  0  0  0  0  0  0  0  0
    6.3178    1.6767    0.1780 C   0  0  0  0  0  0  0  0  0  0  0  0
    7.5405    2.1705    0.8832 C   0  0  0  0  0  0  0  0  0  0  0  0
    8.5129    1.2989    1.1727 C   0  0  0  0  0  0  0  0  0  0  0  0
    5.1235    4.4171    3.0425 O   0  0  0  0  0  0  0  0  0  0  0  0
    3.5274    3.1612   -0.1078 C   0  0  0  0  0  0  0  0  0  0  0  0
    6.0482    5.9307    0.3265 C   0  0  0  0  0  0  0  0  0  0  0  0
    5.0110    6.7641    0.3631 C   0  0  0  0  0  0  0  0  0  0  0  0
    3.5939    6.3330   -0.0001 C   0  0  3  0  0  0  0  0  0  0  0  0
    3.0481    6.9263   -1.3167 C   0  0  0  0  0  0  0  0  0  0  0  0
    2.8803    8.3650   -1.0775 C   0  0  0  0  0  0  0  0  0  0  0  0
    1.9793    8.5711    0.1242 C   0  0  3  0  0  0  0  0  0  0  0  0
    2.6073    7.9818    1.4057 C   0  0  3  0  0  0  0  0  0  0  0  0
    2.7453    6.4947    1.2599 C   0  0  0  0  0  0  0  0  0  0  0  0
    1.9217    8.3092    2.5977 O   0  0  0  0  0  0  0  0  0  0  0  0
    2.0887    9.7047    2.8229 C   0  0  0  0  0  0  0  0  0  0  0  0
    0.6890    8.0005   -0.1144 O   0  0  0  0  0  0  0  0  0  0  0  0
    7.4630    6.3925    0.3299 C   0  0  0  0  0  0  0  0  0  0  0  0
    8.2900    4.1884   -6.5098 O   0  0  0  0  0  0  0  0  0  0  0  0
   10.5511    4.2518   -3.5584 C   0  0  0  0  0  0  0  0  0  0  0  0
   10.5060    6.9510   -4.6071 O   0  0  0  0  0  0  0  0  0  0  0  0
   10.6656    8.2747   -4.1903 C   0  0  0  0  0  0  0  0  0  0  0  0
    6.1930    6.5252   -6.9127 O   0  0  0  0  0  0  0  0  0  0  0  0
    7.2971    7.6252   -7.3114 C   0  0  0  0  0  0  0  0  0  0  0  0
    1.2297    3.1047   -2.2301 H   0  0  0  0  0  0  0  0  0  0  0  0
    1.6713    1.6972   -1.5348 H   0  0  0  0  0  0  0  0  0  0  0  0
    1.3544    1.4427   -3.1277 H   0  0  0  0  0  0  0  0  0  0  0  0
    3.9894    2.8710   -2.1901 H   0  0  0  0  0  0  0  0  0  0  0  0
    4.2479    5.3301   -4.6254 H   0  0  0  0  0  0  0  0  0  0  0  0
    4.2670    4.0697   -5.8286 H   0  0  0  0  0  0  0  0  0  0  0  0
    6.4442    4.5799   -6.2634 H   0  0  0  0  0  0  0  0  0  0  0  0
    7.6147    7.2910   -4.7438 H   0  0  0  0  0  0  0  0  0  0  0  0
    9.8120    7.2711   -6.5271 H   0  0  0  0  0  0  0  0  0  0  0  0
   11.6196    5.3752   -5.9297 H   0  0  0  0  0  0  0  0  0  0  0  0
   10.3792    4.9037   -7.0593 H   0  0  0  0  0  0  0  0  0  0  0  0
   10.4252    3.1296   -5.4231 H   0  0  0  0  0  0  0  0  0  0  0  0
    7.0108   -0.1039   -2.2265 H   0  0  0  0  0  0  0  0  0  0  0  0
    8.1842   -0.1711   -3.5179 H   0  0  0  0  0  0  0  0  0  0  0  0
    6.1681   -1.6941   -3.7824 H   0  0  0  0  0  0  0  0  0  0  0  0
    6.4410   -0.6850   -5.2382 H   0  0  0  0  0  0  0  0  0  0  0  0
    4.8788   -0.2194   -3.0068 H   0  0  0  0  0  0  0  0  0  0  0  0
    4.0003   -0.6597   -4.3325 H   0  0  0  0  0  0  0  0  0  0  0  0
    3.8139    1.4903   -4.5088 H   0  0  0  0  0  0  0  0  0  0  0  0
    5.2508    1.6405   -5.3389 H   0  0  0  0  0  0  0  0  0  0  0  0
    5.5276    1.8039   -2.1918 H   0  0  0  0  0  0  0  0  0  0  0  0
    6.6442    3.9818   -0.0206 H   0  0  0  0  0  0  0  0  0  0  0  0
    3.8966    4.5453    1.2118 H   0  0  0  0  0  0  0  0  0  0  0  0
    6.0061    2.9060    2.1815 H   0  0  0  0  0  0  0  0  0  0  0  0
    2.9724    2.8285    2.3815 H   0  0  0  0  0  0  0  0  0  0  0  0
    3.9955    2.2106    3.6640 H   0  0  0  0  0  0  0  0  0  0  0  0
    4.3042    1.1768    0.1422 H   0  0  0  0  0  0  0  0  0  0  0  0
    6.0918   -0.9036    0.5756 H   0  0  0  0  0  0  0  0  0  0  0  0
    3.0255    0.8152   -1.1012 H   0  0  0  0  0  0  0  0  0  0  0  0
    2.9914    0.1014   -2.5783 H   0  0  0  0  0  0  0  0  0  0  0  0
    5.8230   -2.4445   -0.5852 H   0  0  0  0  0  0  0  0  0  0  0  0
    4.4142   -2.8829   -1.4814 H   0  0  0  0  0  0  0  0  0  0  0  0
    4.3226   -2.3657    0.2227 H   0  0  0  0  0  0  0  0  0  0  0  0
    5.8719    2.3240   -0.5461 H   0  0  0  0  0  0  0  0  0  0  0  0
    6.8157    1.0990   -0.5976 H   0  0  0  0  0  0  0  0  0  0  0  0
    7.9277    3.1801    0.7047 H   0  0  0  0  0  0  0  0  0  0  0  0
    8.3106    0.2564    1.3003 H   0  0  0  0  0  0  0  0  0  0  0  0
    9.5622    1.6854    1.1097 H   0  0  0  0  0  0  0  0  0  0  0  0
    4.9628    5.2615    2.5849 H   0  0  0  0  0  0  0  0  0  0  0  0
    4.1929    2.5793   -0.6564 H   0  0  0  0  0  0  0  0  0  0  0  0
    2.9860    3.6453   -0.9263 H   0  0  0  0  0  0  0  0  0  0  0  0
    2.8021    2.4563    0.3457 H   0  0  0  0  0  0  0  0  0  0  0  0
    5.2233    7.7856    0.6366 H   0  0  0  0  0  0  0  0  0  0  0  0
    3.5413    5.3257   -0.3376 H   0  0  0  0  0  0  0  0  0  0  0  0
    2.1170    6.3683   -1.5419 H   0  0  0  0  0  0  0  0  0  0  0  0
    3.7738    6.7927   -2.1456 H   0  0  0  0  0  0  0  0  0  0  0  0
    2.4913    8.7975   -1.9946 H   0  0  0  0  0  0  0  0  0  0  0  0
    3.9192    8.6950   -0.8741 H   0  0  0  0  0  0  0  0  0  0  0  0
    1.8477    9.6417    0.2122 H   0  0  0  0  0  0  0  0  0  0  0  0
    3.6212    8.3733    1.5326 H   0  0  0  0  0  0  0  0  0  0  0  0
    1.8013    5.9398    1.2136 H   0  0  0  0  0  0  0  0  0  0  0  0
    3.2237    6.0979    2.1668 H   0  0  0  0  0  0  0  0  0  0  0  0
    1.6811    9.9598    3.7946 H   0  0  0  0  0  0  0  0  0  0  0  0
    1.5467   10.2625    2.0586 H   0  0  0  0  0  0  0  0  0  0  0  0
    3.1508    9.9806    2.7882 H   0  0  0  0  0  0  0  0  0  0  0  0
    0.7318    7.0359    0.0120 H   0  0  0  0  0  0  0  0  0  0  0  0
    8.1328    5.6419   -0.1065 H   0  0  0  0  0  0  0  0  0  0  0  0
    7.8031    6.6220    1.3382 H   0  0  0  0  0  0  0  0  0  0  0  0
    7.5381    7.2761   -0.3097 H   0  0  0  0  0  0  0  0  0  0  0  0
    8.3520    5.0343   -6.9914 H   0  0  0  0  0  0  0  0  0  0  0  0
   10.4349    5.2645   -3.1603 H   0  0  0  0  0  0  0  0  0  0  0  0
   11.5754    3.9425   -3.4008 H   0  0  0  0  0  0  0  0  0  0  0  0
    9.9045    3.6381   -2.9136 H   0  0  0  0  0  0  0  0  0  0  0  0
   11.1485    8.2433   -3.2019 H   0  0  0  0  0  0  0  0  0  0  0  0
    9.7008    8.7584   -4.0972 H   0  0  0  0  0  0  0  0  0  0  0  0
   11.3503    8.8211   -4.8455 H   0  0  0  0  0  0  0  0  0  0  0  0
    8.2815    7.3061   -7.7316 H   0  0  0  0  0  0  0  0  0  0  0  0
    7.4739    8.4232   -6.5621 H   0  0  0  0  0  0  0  0  0  0  0  0
    6.9285    8.2081   -8.1835 H   0  0  0  0  0  0  0  0  0  0  0  0
  1  2  1  0  0  0  0
  1 58  1  0  0  0  0
  1 59  1  0  0  0  0
  1 60  1  0  0  0  0
  2  3  1  0  0  0  0
  2 33  1  0  0  0  0
  2 61  1  0  0  0  0
  3  4  1  0  0  0  0
  3 62  1  0  0  0  0
  3 63  1  0  0  0  0
  4  5  1  0  0  0  0
  4 56  1  0  0  0  0
  4 64  1  0  0  0  0
  5  6  1  0  0  0  0
  5 10  1  0  0  0  0
  5 65  1  0  0  0  0
  6  7  1  0  0  0  0
  6 54  1  0  0  0  0
  6 66  1  0  0  0  0
  7  8  1  0  0  0  0
  7 67  1  0  0  0  0
  7 68  1  0  0  0  0
  8  9  1  0  0  0  0
  8 53  1  0  0  0  0
  8 69  1  0  0  0  0
  9 10  1  0  0  0  0
  9 11  1  0  0  0  0
  9 52  1  0  0  0  0
 11 12  2  0  0  0  0
 11 13  1  0  0  0  0
 13 14  2  0  0  0  0
 13 15  1  0  0  0  0
 15 16  1  0  0  0  0
 15 20  1  0  0  0  0
 16 17  1  0  0  0  0
 16 70  1  0  0  0  0
 16 71  1  0  0  0  0
 17 18  1  0  0  0  0
 17 72  1  0  0  0  0
 17 73  1  0  0  0  0
 18 19  1  0  0  0  0
 18 74  1  0  0  0  0
 18 75  1  0  0  0  0
 19 20  1  0  0  0  0
 19 76  1  0  0  0  0
 19 77  1  0  0  0  0
 20 21  1  0  0  0  0
 20 78  1  0  0  0  0
 21 22  2  0  0  0  0
 21 23  1  0  0  0  0
 23 24  1  0  0  0  0
 24 25  1  0  0  0  0
 24 40  1  0  0  0  0
 24 79  1  0  0  0  0
 25 26  1  0  0  0  0
 25 39  1  0  0  0  0
 25 80  1  0  0  0  0
 26 27  1  0  0  0  0
 26 38  1  0  0  0  0
 26 81  1  0  0  0  0
 27 28  1  0  0  0  0
 27 82  1  0  0  0  0
 27 83  1  0  0  0  0
 28 29  2  0  0  0  0
 28 30  1  0  0  0  0
 30 31  1  0  0  0  0
 30 35  1  0  0  0  0
 30 84  1  0  0  0  0
 31 32  2  3  0  0  0
 31 85  1  0  0  0  0
 32 33  1  0  0  0  0
 32 34  1  0  0  0  0
 33 86  1  0  0  0  0
 33 87  1  0  0  0  0
 34 88  1  0  0  0  0
 34 89  1  0  0  0  0
 34 90  1  0  0  0  0
 35 36  1  0  0  0  0
 35 91  1  0  0  0  0
 35 92  1  0  0  0  0
 36 37  2  0  0  0  0
 36 93  1  0  0  0  0
 37 94  1  0  0  0  0
 37 95  1  0  0  0  0
 38 96  1  0  0  0  0
 39 97  1  0  0  0  0
 39 98  1  0  0  0  0
 39 99  1  0  0  0  0
 40 41  2  3  0  0  0
 40 51  1  0  0  0  0
 41 42  1  0  0  0  0
 41100  1  0  0  0  0
 42 43  1  0  0  0  0
 42 47  1  0  0  0  0
 42101  1  0  0  0  0
 43 44  1  0  0  0  0
 43102  1  0  0  0  0
 43103  1  0  0  0  0
 44 45  1  0  0  0  0
 44104  1  0  0  0  0
 44105  1  0  0  0  0
 45 46  1  0  0  0  0
 45 50  1  0  0  0  0
 45106  1  0  0  0  0
 46 47  1  0  0  0  0
 46 48  1  0  0  0  0
 46107  1  0  0  0  0
 47108  1  0  0  0  0
 47109  1  0  0  0  0
 48 49  1  0  0  0  0
 49110  1  0  0  0  0
 49111  1  0  0  0  0
 49112  1  0  0  0  0
 50113  1  0  0  0  0
 51114  1  0  0  0  0
 51115  1  0  0  0  0
 51116  1  0  0  0  0
 52117  1  0  0  0  0
 53118  1  0  0  0  0
 53119  1  0  0  0  0
 53120  1  0  0  0  0
 54 55  1  0  0  0  0
 55121  1  0  0  0  0
 55122  1  0  0  0  0
 55123  1  0  0  0  0
 56 57  1  0  0  0  0
 57124  1  0  0  0  0
 57125  1  0  0  0  0
 57126  1  0  0  0  0
M  END
