
 OpenBabel10072619493D

102107  0  0  0  0  0  0  0  0999 V2000
    1.4417    2.9240    1.7661 C   0  0  0  0  0  0  0  0  0  0  0  0
    0.3346    3.0395    2.5907 C   0  0  0  0  0  0  0  0  0  0  0  0
   -0.8712    2.4297    2.2297 C   0  0  0  0  0  0  0  0  0  0  0  0
   -1.0032    1.6993    1.0246 C   0  0  0  0  0  0  0  0  0  0  0  0
    0.1400    1.5568    0.1918 C   0  0  0  0  0  0  0  0  0  0  0  0
    1.3405    2.1908    0.5858 C   0  0  0  0  0  0  0  0  0  0  0  0
    0.0510    0.7746   -0.9872 C   0  0  0  0  0  0  0  0  0  0  0  0
   -1.1640    0.1465   -1.3070 C   0  0  0  0  0  0  0  0  0  0  0  0
   -2.3064    0.3044   -0.5190 C   0  0  0  0  0  0  0  0  0  0  0  0
   -2.2229    1.0976    0.6255 C   0  0  0  0  0  0  0  0  0  0  0  0
   -3.3743    1.3541    1.3385 O   0  0  0  0  0  0  0  0  0  0  0  0
   -3.5576   -0.3452   -1.0064 C   0  0  0  0  0  0  0  0  0  0  0  0
   -3.6306   -0.6156   -2.2025 O   0  0  0  0  0  0  0  0  0  0  0  0
   -4.5315   -0.5961   -0.0568 N   0  0  0  0  0  0  0  0  0  0  0  0
   -5.7687   -1.2291   -0.2844 C   0  0  0  0  0  0  0  0  0  0  0  0
   -6.0676   -1.9014   -1.4669 C   0  0  0  0  0  0  0  0  0  0  0  0
   -7.3386   -2.4582   -1.6789 C   0  0  0  0  0  0  0  0  0  0  0  0
   -8.3297   -2.3642   -0.6980 C   0  0  0  0  0  0  0  0  0  0  0  0
   -8.0088   -1.7193    0.5094 C   0  0  0  0  0  0  0  0  0  0  0  0
   -6.7356   -1.1769    0.7205 C   0  0  0  0  0  0  0  0  0  0  0  0
   -9.6924   -2.8817   -0.8356 C   0  0  0  0  0  0  0  0  0  0  0  0
  -10.6641   -2.0755   -1.2915 C   0  0  0  0  0  0  0  0  0  0  0  0
  -12.0700   -2.4778   -1.2550 C   0  0  0  0  0  0  0  0  0  0  0  0
  -12.9016   -2.1827   -0.1692 C   0  0  0  0  0  0  0  0  0  0  0  0
  -14.2574   -2.5246   -0.1976 C   0  0  0  0  0  0  0  0  0  0  0  0
  -14.8085   -3.1920   -1.2897 C   0  0  0  0  0  0  0  0  0  0  0  0
  -13.9799   -3.5111   -2.3700 C   0  0  0  0  0  0  0  0  0  0  0  0
  -12.6197   -3.1602   -2.3500 C   0  0  0  0  0  0  0  0  0  0  0  0
  -16.1847   -3.5072   -1.3602 N   0  0  0  0  0  0  0  0  0  0  0  0
  -17.0612   -3.5090   -0.2846 C   0  0  0  0  0  0  0  0  0  0  0  0
  -16.7496   -3.4174    0.9018 O   0  0  0  0  0  0  0  0  0  0  0  0
  -18.5057   -3.7129   -0.5857 C   0  0  0  0  0  0  0  0  0  0  0  0
  -19.3358   -4.3318    0.3602 C   0  0  0  0  0  0  0  0  0  0  0  0
  -20.7261   -4.4905    0.1373 C   0  0  0  0  0  0  0  0  0  0  0  0
  -21.5733   -5.0989    1.0931 C   0  0  0  0  0  0  0  0  0  0  0  0
  -22.9394   -5.2633    0.8660 C   0  0  0  0  0  0  0  0  0  0  0  0
  -23.4962   -4.7937   -0.3110 C   0  0  0  0  0  0  0  0  0  0  0  0
  -22.6951   -4.1517   -1.2522 C   0  0  0  0  0  0  0  0  0  0  0  0
  -21.3002   -3.9971   -1.0687 C   0  0  0  0  0  0  0  0  0  0  0  0
  -20.4586   -3.3609   -2.0249 C   0  0  0  0  0  0  0  0  0  0  0  0
  -19.0745   -3.2276   -1.7625 C   0  0  0  0  0  0  0  0  0  0  0  0
  -20.9884   -2.7526   -3.3109 C   0  0  0  0  0  0  0  0  0  0  0  0
  -20.1383   -3.3574   -4.8102 S   0  0  0  0  0  0  0  0  0  0  0  0
  -20.6430   -5.1066   -4.7534 C   0  0  0  0  0  0  0  0  0  0  0  0
  -20.1043   -5.8375   -5.9736 C   0  0  0  0  0  0  0  0  0  0  0  0
  -20.5036   -7.2875   -5.9263 C   0  0  0  0  0  0  0  0  0  0  0  0
  -21.1772   -7.8059   -5.0529 O   0  0  0  0  0  0  0  0  0  0  0  0
  -20.0273   -7.9878   -6.9785 O   0  0  0  0  0  0  0  0  0  0  0  0
  -18.8181   -4.7958    1.5523 O   0  0  0  0  0  0  0  0  0  0  0  0
  -12.2703   -1.3455    1.2571 S   0  0  0  0  0  0  0  0  0  0  0  0
  -11.3955   -2.2591    1.9628 O   0  0  0  0  0  0  0  0  0  0  0  0
  -11.8427   -0.0241    0.8649 O   0  0  0  0  0  0  0  0  0  0  0  0
  -13.5407   -1.1680    2.2394 O   0  0  0  0  0  0  0  0  0  0  0  0
   -7.5443   -3.3102   -3.2218 S   0  0  0  0  0  0  0  0  0  0  0  0
   -6.5603   -4.3752   -3.2401 O   0  0  0  0  0  0  0  0  0  0  0  0
   -8.9370   -3.5694   -3.4941 O   0  0  0  0  0  0  0  0  0  0  0  0
   -7.0406   -2.2512   -4.3337 O   0  0  0  0  0  0  0  0  0  0  0  0
    1.2234    0.5378   -1.9162 C   0  0  0  0  0  0  0  0  0  0  0  0
    2.3444   -0.7473   -1.2743 S   0  0  0  0  0  0  0  0  0  0  0  0
    3.5894   -0.7091   -2.5982 C   0  0  0  0  0  0  0  0  0  0  0  0
    4.8644   -1.4199   -2.1596 C   0  0  0  0  0  0  0  0  0  0  0  0
    5.8482   -1.4527   -3.3039 C   0  0  0  0  0  0  0  0  0  0  0  0
    5.6615   -0.9540   -4.4027 O   0  0  0  0  0  0  0  0  0  0  0  0
    6.9929   -2.1005   -2.9864 O   0  0  0  0  0  0  0  0  0  0  0  0
    2.3845    3.3996    2.0306 H   0  0  0  0  0  0  0  0  0  0  0  0
    0.4161    3.5853    3.5271 H   0  0  0  0  0  0  0  0  0  0  0  0
   -1.7134    2.5217    2.9139 H   0  0  0  0  0  0  0  0  0  0  0  0
    2.2405    2.1088   -0.0180 H   0  0  0  0  0  0  0  0  0  0  0  0
   -1.2242   -0.4761   -2.1984 H   0  0  0  0  0  0  0  0  0  0  0  0
   -3.4998    2.3263    1.2674 H   0  0  0  0  0  0  0  0  0  0  0  0
   -4.3677   -0.1874    0.8628 H   0  0  0  0  0  0  0  0  0  0  0  0
   -5.3073   -2.0348   -2.2307 H   0  0  0  0  0  0  0  0  0  0  0  0
   -8.7632   -1.6382    1.2929 H   0  0  0  0  0  0  0  0  0  0  0  0
   -6.5302   -0.7044    1.6763 H   0  0  0  0  0  0  0  0  0  0  0  0
   -9.8801   -3.8976   -0.4905 H   0  0  0  0  0  0  0  0  0  0  0  0
  -10.4587   -1.0529   -1.6101 H   0  0  0  0  0  0  0  0  0  0  0  0
  -14.8881   -2.2354    0.6341 H   0  0  0  0  0  0  0  0  0  0  0  0
  -14.3717   -4.0337   -3.2398 H   0  0  0  0  0  0  0  0  0  0  0  0
  -11.9828   -3.4303   -3.1945 H   0  0  0  0  0  0  0  0  0  0  0  0
  -16.5205   -3.8662   -2.2457 H   0  0  0  0  0  0  0  0  0  0  0  0
  -21.1578   -5.4431    2.0399 H   0  0  0  0  0  0  0  0  0  0  0  0
  -23.5618   -5.7469    1.6143 H   0  0  0  0  0  0  0  0  0  0  0  0
  -24.5603   -4.9044   -0.4933 H   0  0  0  0  0  0  0  0  0  0  0  0
  -23.2147   -3.7669   -2.1252 H   0  0  0  0  0  0  0  0  0  0  0  0
  -18.4475   -2.6914   -2.4722 H   0  0  0  0  0  0  0  0  0  0  0  0
  -20.8705   -1.6626   -3.2562 H   0  0  0  0  0  0  0  0  0  0  0  0
  -22.0489   -2.9366   -3.4749 H   0  0  0  0  0  0  0  0  0  0  0  0
  -21.7351   -5.1628   -4.7243 H   0  0  0  0  0  0  0  0  0  0  0  0
  -20.2443   -5.5577   -3.8414 H   0  0  0  0  0  0  0  0  0  0  0  0
  -19.0101   -5.7926   -5.9951 H   0  0  0  0  0  0  0  0  0  0  0  0
  -20.5074   -5.4025   -6.8945 H   0  0  0  0  0  0  0  0  0  0  0  0
  -19.5077   -7.4499   -7.6045 H   0  0  0  0  0  0  0  0  0  0  0  0
  -17.9401   -4.3708    1.6796 H   0  0  0  0  0  0  0  0  0  0  0  0
  -13.4186   -1.7927    2.9840 H   0  0  0  0  0  0  0  0  0  0  0  0
   -6.1132   -2.4714   -4.5651 H   0  0  0  0  0  0  0  0  0  0  0  0
    1.7727    1.4704   -2.0872 H   0  0  0  0  0  0  0  0  0  0  0  0
    0.8521    0.2081   -2.8917 H   0  0  0  0  0  0  0  0  0  0  0  0
    3.8204    0.3327   -2.8425 H   0  0  0  0  0  0  0  0  0  0  0  0
    3.1647   -1.1885   -3.4857 H   0  0  0  0  0  0  0  0  0  0  0  0
    4.6540   -2.4538   -1.8623 H   0  0  0  0  0  0  0  0  0  0  0  0
    5.3313   -0.8841   -1.3239 H   0  0  0  0  0  0  0  0  0  0  0  0
    7.0066   -2.4480   -2.0740 H   0  0  0  0  0  0  0  0  0  0  0  0
  1  2  2  0  0  0  0
  1  6  1  0  0  0  0
  1 65  1  0  0  0  0
  2  3  1  0  0  0  0
  2 66  1  0  0  0  0
  3  4  2  0  0  0  0
  3 67  1  0  0  0  0
  4  5  1  0  0  0  0
  4 10  1  0  0  0  0
  5  6  2  0  0  0  0
  5  7  1  0  0  0  0
  6 68  1  0  0  0  0
  7  8  2  0  0  0  0
  7 58  1  0  0  0  0
  8  9  1  0  0  0  0
  8 69  1  0  0  0  0
  9 10  2  0  0  0  0
  9 12  1  0  0  0  0
 10 11  1  0  0  0  0
 11 70  1  0  0  0  0
 12 13  2  0  0  0  0
 12 14  1  0  0  0  0
 14 15  1  0  0  0  0
 14 71  1  0  0  0  0
 15 16  2  0  0  0  0
 15 20  1  0  0  0  0
 16 17  1  0  0  0  0
 16 72  1  0  0  0  0
 17 18  2  0  0  0  0
 17 54  1  0  0  0  0
 18 19  1  0  0  0  0
 18 21  1  0  0  0  0
 19 20  2  0  0  0  0
 19 73  1  0  0  0  0
 20 74  1  0  0  0  0
 21 22  2  0  0  0  0
 21 75  1  0  0  0  0
 22 23  1  0  0  0  0
 22 76  1  0  0  0  0
 23 24  2  0  0  0  0
 23 28  1  0  0  0  0
 24 25  1  0  0  0  0
 24 50  1  0  0  0  0
 25 26  2  0  0  0  0
 25 77  1  0  0  0  0
 26 27  1  0  0  0  0
 26 29  1  0  0  0  0
 27 28  2  0  0  0  0
 27 78  1  0  0  0  0
 28 79  1  0  0  0  0
 29 30  1  0  0  0  0
 29 80  1  0  0  0  0
 30 31  2  0  0  0  0
 30 32  1  0  0  0  0
 32 33  2  0  0  0  0
 32 41  1  0  0  0  0
 33 34  1  0  0  0  0
 33 49  1  0  0  0  0
 34 35  2  0  0  0  0
 34 39  1  0  0  0  0
 35 36  1  0  0  0  0
 35 81  1  0  0  0  0
 36 37  2  0  0  0  0
 36 82  1  0  0  0  0
 37 38  1  0  0  0  0
 37 83  1  0  0  0  0
 38 39  2  0  0  0  0
 38 84  1  0  0  0  0
 39 40  1  0  0  0  0
 40 41  2  0  0  0  0
 40 42  1  0  0  0  0
 41 85  1  0  0  0  0
 42 43  1  0  0  0  0
 42 86  1  0  0  0  0
 42 87  1  0  0  0  0
 43 44  1  0  0  0  0
 44 45  1  0  0  0  0
 44 88  1  0  0  0  0
 44 89  1  0  0  0  0
 45 46  1  0  0  0  0
 45 90  1  0  0  0  0
 45 91  1  0  0  0  0
 46 47  2  0  0  0  0
 46 48  1  0  0  0  0
 48 92  1  0  0  0  0
 49 93  1  0  0  0  0
 50 51  2  0  0  0  0
 50 52  2  0  0  0  0
 50 53  1  0  0  0  0
 53 94  1  0  0  0  0
 54 55  2  0  0  0  0
 54 56  2  0  0  0  0
 54 57  1  0  0  0  0
 57 95  1  0  0  0  0
 58 59  1  0  0  0  0
 58 96  1  0  0  0  0
 58 97  1  0  0  0  0
 59 60  1  0  0  0  0
 60 61  1  0  0  0  0
 60 98  1  0  0  0  0
 60 99  1  0  0  0  0
 61 62  1  0  0  0  0
 61100  1  0  0  0  0
 61101  1  0  0  0  0
 62 63  2  0  0  0  0
 62 64  1  0  0  0  0
 64102  1  0  0  0  0
M  END
