
 OpenBabel10072620223D

 23 22  0  0  0  0  0  0  0  0999 V2000
    3.0093   -0.1684   -1.4991 C   0  0  0  0  0  0  0  0  0  0  0  0
    2.5842   -0.1101   -0.0351 C   0  0  0  0  0  0  0  0  0  0  0  0
    3.0747   -1.2975    0.8409 C   0  0  0  0  0  0  0  0  0  0  0  0
    2.5110   -1.0968    2.2609 C   0  0  0  0  0  0  0  0  0  0  0  0
    2.5478   -2.6269    0.2697 C   0  0  0  0  0  0  0  0  0  0  0  0
    4.5474   -1.2745    0.8793 N   0  0  0  0  0  0  0  0  0  0  0  0
    5.3127   -2.2022    1.5233 C   0  0  0  0  0  0  0  0  0  0  0  0
    4.9263   -3.2066    2.0972 O   0  0  0  0  0  0  0  0  0  0  0  0
    6.6333   -1.8886    1.4649 N   0  0  0  0  0  0  0  0  0  0  0  0
    2.6763    0.7370   -2.0171 H   0  0  0  0  0  0  0  0  0  0  0  0
    2.5615   -1.0226   -2.0152 H   0  0  0  0  0  0  0  0  0  0  0  0
    4.0967   -0.2299   -1.6015 H   0  0  0  0  0  0  0  0  0  0  0  0
    1.4885   -0.0509    0.0008 H   0  0  0  0  0  0  0  0  0  0  0  0
    2.9591    0.8316    0.3884 H   0  0  0  0  0  0  0  0  0  0  0  0
    1.4166   -1.0441    2.2492 H   0  0  0  0  0  0  0  0  0  0  0  0
    2.8876   -0.1682    2.7054 H   0  0  0  0  0  0  0  0  0  0  0  0
    2.7929   -1.9152    2.9316 H   0  0  0  0  0  0  0  0  0  0  0  0
    1.4677   -2.5778    0.0913 H   0  0  0  0  0  0  0  0  0  0  0  0
    2.7211   -3.4640    0.9541 H   0  0  0  0  0  0  0  0  0  0  0  0
    3.0392   -2.8820   -0.6754 H   0  0  0  0  0  0  0  0  0  0  0  0
    4.9748   -0.3595    0.8725 H   0  0  0  0  0  0  0  0  0  0  0  0
    6.9569   -1.5007    0.5910 H   0  0  0  0  0  0  0  0  0  0  0  0
    7.2210   -2.6258    1.8353 H   0  0  0  0  0  0  0  0  0  0  0  0
  1  2  1  0  0  0  0
  1 10  1  0  0  0  0
  1 11  1  0  0  0  0
  1 12  1  0  0  0  0
  2  3  1  0  0  0  0
  2 13  1  0  0  0  0
  2 14  1  0  0  0  0
  3  4  1  0  0  0  0
  3  5  1  0  0  0  0
  3  6  1  0  0  0  0
  4 15  1  0  0  0  0
  4 16  1  0  0  0  0
  4 17  1  0  0  0  0
  5 18  1  0  0  0  0
  5 19  1  0  0  0  0
  5 20  1  0  0  0  0
  6  7  1  0  0  0  0
  6 21  1  0  0  0  0
  7  8  2  0  0  0  0
  7  9  1  0  0  0  0
  9 22  1  0  0  0  0
  9 23  1  0  0  0  0
M  END
