
 OpenBabel10072616443D

178187  0  0  1  0  0  0  0  0999 V2000
   -0.2336   -0.3747   -6.4815 C   0  0  0  0  0  0  0  0  0  0  0  0
   -0.8592   -1.0252   -5.2771 C   0  0  0  0  0  0  0  0  0  0  0  0
   -0.4591   -2.2984   -4.8848 C   0  0  0  0  0  0  0  0  0  0  0  0
   -0.9915   -2.9480   -3.7479 C   0  0  0  0  0  0  0  0  0  0  0  0
   -1.9655   -2.3212   -2.9474 C   0  0  0  0  0  0  0  0  0  0  0  0
   -2.4030   -1.0069   -3.3414 C   0  0  0  0  0  0  0  0  0  0  0  0
   -1.8276   -0.3910   -4.5039 C   0  0  0  0  0  0  0  0  0  0  0  0
   -3.4346   -0.1287   -2.6737 C   0  0  0  0  0  0  0  0  0  0  0  0
   -2.5941   -3.2509   -1.4211 S   0  0  0  0  0  0  0  0  0  0  0  0
   -2.2480   -2.4222   -0.2981 O   0  0  0  0  0  0  0  0  0  0  0  0
   -3.9929   -3.5518   -1.7222 O   0  0  0  0  0  0  0  0  0  0  0  0
   -1.7664   -4.7401   -1.2581 O   0  0  0  0  0  0  0  0  0  0  0  0
   -2.0005   -5.6441   -0.1253 C   0  0  0  0  0  0  0  0  0  0  0  0
   -0.7564   -6.8915    0.4510 C   0  0  3  0  0  0  0  0  0  0  0  0
   -0.9621   -8.8762    0.5982 C   0  0  3  0  0  0  0  0  0  0  0  0
   -2.2813   -8.6452    1.0151 C   0  0  3  0  0  0  0  0  0  0  0  0
   -1.3903   -8.1211    2.3450 C   0  0  3  0  0  0  0  0  0  0  0  0
   -1.7877   -6.7310    2.6249 C   0  0  3  0  0  0  0  0  0  0  0  0
   -0.6791   -6.1842    1.8456 O   0  0  0  0  0  0  0  0  0  0  0  0
   -1.8540   -6.5802    4.0261 O   0  0  0  0  0  0  0  0  0  0  0  0
   -2.8502   -7.4005    4.7504 C   0  0  3  0  0  0  0  0  0  0  0  0
   -2.8130   -8.9422    4.6386 C   0  0  3  0  0  0  0  0  0  0  0  0
   -3.3474   -9.4862    3.3861 O   0  0  0  0  0  0  0  0  0  0  0  0
   -4.5426   -9.0487    2.7524 C   0  0  3  0  0  0  0  0  0  0  0  0
   -5.0238   -7.6561    3.2856 C   0  0  3  0  0  0  0  0  0  0  0  0
   -4.3334   -7.0680    4.5595 C   0  0  3  0  0  0  0  0  0  0  0  0
   -4.5363   -5.6568    4.6576 O   0  0  0  0  0  0  0  0  0  0  0  0
   -6.4412   -7.6587    3.4224 O   0  0  0  0  0  0  0  0  0  0  0  0
   -5.4789  -10.1087    2.4184 O   0  0  0  0  0  0  0  0  0  0  0  0
   -5.1969  -11.0738    1.2820 C   0  0  3  0  0  0  0  0  0  0  0  0
   -3.8258  -11.6482    1.0439 C   0  0  3  0  0  0  0  0  0  0  0  0
   -2.8329  -10.9160    0.3565 O   0  0  0  0  0  0  0  0  0  0  0  0
   -2.8927  -11.0020   -1.0111 C   0  0  3  0  0  0  0  0  0  0  0  0
   -4.4091  -10.4792   -1.2192 C   0  0  3  0  0  0  0  0  0  0  0  0
   -5.6089  -10.7279   -0.1437 C   0  0  3  0  0  0  0  0  0  0  0  0
   -6.5258   -9.6324   -0.0534 O   0  0  0  0  0  0  0  0  0  0  0  0
   -4.7776  -10.7289   -2.5622 O   0  0  0  0  0  0  0  0  0  0  0  0
   -2.3234  -12.2790   -1.4267 O   0  0  0  0  0  0  0  0  0  0  0  0
   -0.8448  -12.6376   -1.5603 C   0  0  3  0  0  0  0  0  0  0  0  0
    0.0017  -13.3569   -0.4256 C   0  0  3  0  0  0  0  0  0  0  0  0
    0.7462  -12.5084    0.4446 O   0  0  0  0  0  0  0  0  0  0  0  0
    1.6409  -11.5374   -0.0692 C   0  0  3  0  0  0  0  0  0  0  0  0
    0.9860  -10.8770   -1.2877 C   0  0  3  0  0  0  0  0  0  0  0  0
    0.1218  -11.6751   -2.2789 C   0  0  3  0  0  0  0  0  0  0  0  0
   -0.6301  -10.8002   -3.1250 O   0  0  0  0  0  0  0  0  0  0  0  0
    1.7849   -9.8621   -1.8719 O   0  0  0  0  0  0  0  0  0  0  0  0
    2.9924  -11.9640   -0.2859 O   0  0  0  0  0  0  0  0  0  0  0  0
    3.8941  -12.1573    0.8670 C   0  0  3  0  0  0  0  0  0  0  0  0
    3.2965  -13.0685    1.9320 C   0  0  3  0  0  0  0  0  0  0  0  0
    2.3602  -12.3536    2.7107 O   0  0  0  0  0  0  0  0  0  0  0  0
    2.7486  -11.1801    3.4235 C   0  0  3  0  0  0  0  0  0  0  0  0
    3.5016  -10.1852    2.5217 C   0  0  3  0  0  0  0  0  0  0  0  0
    4.4753  -10.8990    1.5727 C   0  0  3  0  0  0  0  0  0  0  0  0
    5.0330  -10.0092    0.6051 O   0  0  0  0  0  0  0  0  0  0  0  0
    4.1511   -9.1995    3.3357 O   0  0  0  0  0  0  0  0  0  0  0  0
    3.4597  -11.4182    4.6757 O   0  0  0  0  0  0  0  0  0  0  0  0
    2.7864  -11.9966    5.8628 C   0  0  3  0  0  0  0  0  0  0  0  0
    1.9958  -13.2281    5.4953 C   0  0  3  0  0  0  0  0  0  0  0  0
    1.0591  -12.7230    4.5836 O   0  0  0  0  0  0  0  0  0  0  0  0
    0.0908  -11.8340    5.0352 C   0  0  3  0  0  0  0  0  0  0  0  0
    0.5969  -10.6462    5.8490 C   0  0  3  0  0  0  0  0  0  0  0  0
    1.8381  -11.0442    6.6406 C   0  0  3  0  0  0  0  0  0  0  0  0
    2.5493   -9.8951    7.0866 O   0  0  0  0  0  0  0  0  0  0  0  0
   -0.4567  -10.1030    6.6568 O   0  0  0  0  0  0  0  0  0  0  0  0
   -0.8272  -12.6748    5.6650 O   0  0  0  0  0  0  0  0  0  0  0  0
   -1.2398  -13.7763    4.8261 C   0  0  3  0  0  0  0  0  0  0  0  0
   -0.5538  -14.1900    3.4686 C   0  0  3  0  0  0  0  0  0  0  0  0
   -0.4049  -13.0994    2.4788 O   0  0  0  0  0  0  0  0  0  0  0  0
   -1.3503  -11.8646    2.2371 C   0  0  3  0  0  0  0  0  0  0  0  0
   -0.5957  -10.3093    1.7116 O   0  0  0  0  0  0  0  0  0  0  0  0
   -2.6087  -12.1767    3.5574 C   0  0  3  0  0  0  0  0  0  0  0  0
   -2.5947  -13.4409    4.4121 C   0  0  3  0  0  0  0  0  0  0  0  0
   -3.4524  -13.2906    5.5570 O   0  0  0  0  0  0  0  0  0  0  0  0
   -4.0718  -12.2831    3.3930 O   0  0  0  0  0  0  0  0  0  0  0  0
   -1.1662  -15.6008    3.0432 C   0  0  0  0  0  0  0  0  0  0  0  0
   -0.3128  -16.5359    2.2204 N   0  3  0  0  0  0  0  0  0  0  0  0
    0.9850  -16.7859    2.5218 C   0  0  0  0  0  0  0  0  0  0  0  0
    1.7641  -17.6120    1.7115 C   0  0  0  0  0  0  0  0  0  0  0  0
    1.1867  -18.2496    0.6230 C   0  0  0  0  0  0  0  0  0  0  0  0
   -0.1766  -18.1194    0.4201 C   0  0  0  0  0  0  0  0  0  0  0  0
   -0.9155  -17.2725    1.2431 C   0  0  0  0  0  0  0  0  0  0  0  0
    1.3552  -14.1360    6.5576 C   0  0  0  0  0  0  0  0  0  0  0  0
    2.3194  -14.7633    7.3716 O   0  0  0  0  0  0  0  0  0  0  0  0
    4.2677  -13.8448    2.8226 C   0  0  0  0  0  0  0  0  0  0  0  0
    5.1711  -14.6435    2.0824 O   0  0  0  0  0  0  0  0  0  0  0  0
    1.0485  -14.3684   -0.9337 C   0  0  0  0  0  0  0  0  0  0  0  0
    0.4295  -15.4689   -1.5644 O   0  0  0  0  0  0  0  0  0  0  0  0
   -3.8181  -13.1841    0.6733 C   0  0  0  0  0  0  0  0  0  0  0  0
   -4.1542  -14.0932    1.7307 O   0  0  0  0  0  0  0  0  0  0  0  0
   -3.3760   -9.7224    5.8226 C   0  0  0  0  0  0  0  0  0  0  0  0
   -3.0138   -9.1204    7.0479 O   0  0  0  0  0  0  0  0  0  0  0  0
    0.1465   -8.1578    2.4512 O   0  0  0  0  0  0  0  0  0  0  0  0
   -2.7305   -8.1172   -0.3182 O   0  0  0  0  0  0  0  0  0  0  0  0
   -0.4526   -4.3091   -3.4594 C   0  0  0  0  0  0  0  0  0  0  0  0
    0.4480   -1.0654   -6.9940 H   0  0  0  0  0  0  0  0  0  0  0  0
    0.3533    0.5021   -6.1889 H   0  0  0  0  0  0  0  0  0  0  0  0
   -0.9938   -0.0749   -7.2100 H   0  0  0  0  0  0  0  0  0  0  0  0
    0.2982   -2.8070   -5.4780 H   0  0  0  0  0  0  0  0  0  0  0  0
   -2.1472    0.6126   -4.8049 H   0  0  0  0  0  0  0  0  0  0  0  0
   -3.9092   -0.5810   -1.8066 H   0  0  0  0  0  0  0  0  0  0  0  0
   -4.2224    0.1349   -3.3969 H   0  0  0  0  0  0  0  0  0  0  0  0
   -2.9725    0.8208   -2.3646 H   0  0  0  0  0  0  0  0  0  0  0  0
   -3.0216   -6.0349   -0.1934 H   0  0  0  0  0  0  0  0  0  0  0  0
   -2.0710   -4.9256    0.7067 H   0  0  0  0  0  0  0  0  0  0  0  0
    0.1456   -6.6837   -0.1284 H   0  0  0  0  0  0  0  0  0  0  0  0
   -0.8413   -9.2217   -0.4109 H   0  0  0  0  0  0  0  0  0  0  0  0
   -2.9962   -7.9099    1.3199 H   0  0  0  0  0  0  0  0  0  0  0  0
   -1.4939   -8.8821    3.0538 H   0  0  0  0  0  0  0  0  0  0  0  0
   -2.7228   -6.3362    2.2279 H   0  0  0  0  0  0  0  0  0  0  0  0
   -2.5687   -7.1329    5.7747 H   0  0  0  0  0  0  0  0  0  0  0  0
   -1.7451   -9.2059    4.7072 H   0  0  0  0  0  0  0  0  0  0  0  0
   -4.3545   -8.8138    1.7210 H   0  0  0  0  0  0  0  0  0  0  0  0
   -4.8067   -6.9183    2.4999 H   0  0  0  0  0  0  0  0  0  0  0  0
   -4.8599   -7.4942    5.4225 H   0  0  0  0  0  0  0  0  0  0  0  0
   -3.7340   -5.1952    4.3524 H   0  0  0  0  0  0  0  0  0  0  0  0
   -6.6885   -8.5007    3.8434 H   0  0  0  0  0  0  0  0  0  0  0  0
   -5.8339  -11.9094    1.6111 H   0  0  0  0  0  0  0  0  0  0  0  0
   -3.4057  -11.3769    1.9504 H   0  0  0  0  0  0  0  0  0  0  0  0
   -2.2675  -10.2411   -1.4702 H   0  0  0  0  0  0  0  0  0  0  0  0
   -4.3445   -9.3909   -1.1181 H   0  0  0  0  0  0  0  0  0  0  0  0
   -6.1796  -11.5858   -0.5193 H   0  0  0  0  0  0  0  0  0  0  0  0
   -6.7435   -9.4986    0.8963 H   0  0  0  0  0  0  0  0  0  0  0  0
   -4.5127   -9.9170   -3.0319 H   0  0  0  0  0  0  0  0  0  0  0  0
   -0.9966  -13.4535   -2.2760 H   0  0  0  0  0  0  0  0  0  0  0  0
   -0.6995  -13.9367    0.1863 H   0  0  0  0  0  0  0  0  0  0  0  0
    1.7072  -10.7475    0.6760 H   0  0  0  0  0  0  0  0  0  0  0  0
    0.2029  -10.3772   -0.7926 H   0  0  0  0  0  0  0  0  0  0  0  0
    0.8041  -12.2477   -2.9198 H   0  0  0  0  0  0  0  0  0  0  0  0
   -1.5024  -11.2116   -3.2746 H   0  0  0  0  0  0  0  0  0  0  0  0
    2.5962  -10.2878   -2.1989 H   0  0  0  0  0  0  0  0  0  0  0  0
    4.7497  -12.6636    0.4047 H   0  0  0  0  0  0  0  0  0  0  0  0
    2.7301  -13.8369    1.4035 H   0  0  0  0  0  0  0  0  0  0  0  0
    1.8315  -10.6465    3.6588 H   0  0  0  0  0  0  0  0  0  0  0  0
    2.7861   -9.6250    1.9138 H   0  0  0  0  0  0  0  0  0  0  0  0
    5.3251  -11.2174    2.1923 H   0  0  0  0  0  0  0  0  0  0  0  0
    4.3062   -9.6177    0.0930 H   0  0  0  0  0  0  0  0  0  0  0  0
    4.5118   -9.6710    4.1119 H   0  0  0  0  0  0  0  0  0  0  0  0
    3.6001  -12.2869    6.5317 H   0  0  0  0  0  0  0  0  0  0  0  0
    2.6406  -13.8918    4.9295 H   0  0  0  0  0  0  0  0  0  0  0  0
   -0.3915  -11.3566    4.1934 H   0  0  0  0  0  0  0  0  0  0  0  0
    0.8786   -9.8305    5.1711 H   0  0  0  0  0  0  0  0  0  0  0  0
    1.4889  -11.5507    7.5484 H   0  0  0  0  0  0  0  0  0  0  0  0
    2.7373   -9.3296    6.3172 H   0  0  0  0  0  0  0  0  0  0  0  0
   -0.9165  -10.8645    7.0662 H   0  0  0  0  0  0  0  0  0  0  0  0
   -1.2806  -14.6361    5.5034 H   0  0  0  0  0  0  0  0  0  0  0  0
    0.4712  -14.4843    3.6791 H   0  0  0  0  0  0  0  0  0  0  0  0
   -1.6430  -12.2380    1.2803 H   0  0  0  0  0  0  0  0  0  0  0  0
   -2.5066  -11.3068    4.1489 H   0  0  0  0  0  0  0  0  0  0  0  0
   -3.0342  -14.2954    3.8957 H   0  0  0  0  0  0  0  0  0  0  0  0
   -4.2513  -12.8316    5.2167 H   0  0  0  0  0  0  0  0  0  0  0  0
   -4.2808  -13.1387    2.9434 H   0  0  0  0  0  0  0  0  0  0  0  0
   -2.0970  -15.4739    2.4921 H   0  0  0  0  0  0  0  0  0  0  0  0
   -1.3672  -16.2121    3.9408 H   0  0  0  0  0  0  0  0  0  0  0  0
    1.4051  -16.3439    3.4183 H   0  0  0  0  0  0  0  0  0  0  0  0
    2.8172  -17.7734    1.9333 H   0  0  0  0  0  0  0  0  0  0  0  0
    1.7900  -18.8703   -0.0409 H   0  0  0  0  0  0  0  0  0  0  0  0
   -0.6573  -18.6656   -0.3926 H   0  0  0  0  0  0  0  0  0  0  0  0
   -1.9911  -17.1835    1.1189 H   0  0  0  0  0  0  0  0  0  0  0  0
    0.7926  -14.9349    6.0537 H   0  0  0  0  0  0  0  0  0  0  0  0
    0.6335  -13.6241    7.1982 H   0  0  0  0  0  0  0  0  0  0  0  0
    2.6389  -15.5609    6.9180 H   0  0  0  0  0  0  0  0  0  0  0  0
    3.6946  -14.5342    3.4480 H   0  0  0  0  0  0  0  0  0  0  0  0
    4.8284  -13.1953    3.4977 H   0  0  0  0  0  0  0  0  0  0  0  0
    4.6779  -15.3586    1.6496 H   0  0  0  0  0  0  0  0  0  0  0  0
    1.6387  -14.7529   -0.0924 H   0  0  0  0  0  0  0  0  0  0  0  0
    1.7679  -13.9146   -1.6192 H   0  0  0  0  0  0  0  0  0  0  0  0
    0.0450  -16.0124   -0.8650 H   0  0  0  0  0  0  0  0  0  0  0  0
   -2.8206  -13.5252    0.4229 H   0  0  0  0  0  0  0  0  0  0  0  0
   -4.4420  -13.3517   -0.2100 H   0  0  0  0  0  0  0  0  0  0  0  0
   -4.0639  -14.9729    1.3007 H   0  0  0  0  0  0  0  0  0  0  0  0
   -2.9416  -10.7230    5.8607 H   0  0  0  0  0  0  0  0  0  0  0  0
   -4.4513   -9.8641    5.7223 H   0  0  0  0  0  0  0  0  0  0  0  0
   -2.0300   -9.0890    7.0700 H   0  0  0  0  0  0  0  0  0  0  0  0
    0.4252   -7.2123    2.4911 H   0  0  0  0  0  0  0  0  0  0  0  0
   -2.0712   -8.0389   -1.0427 H   0  0  0  0  0  0  0  0  0  0  0  0
    0.2771   -4.6298   -4.2031 H   0  0  0  0  0  0  0  0  0  0  0  0
   -1.2711   -5.0343   -3.4866 H   0  0  0  0  0  0  0  0  0  0  0  0
    0.0666   -4.2906   -2.4973 H   0  0  0  0  0  0  0  0  0  0  0  0
  1  2  1  0  0  0  0
  1 95  1  0  0  0  0
  1 96  1  0  0  0  0
  1 97  1  0  0  0  0
  2  3  2  0  0  0  0
  2  7  1  0  0  0  0
  3  4  1  0  0  0  0
  3 98  1  0  0  0  0
  4  5  2  0  0  0  0
  4 94  1  0  0  0  0
  5  6  1  0  0  0  0
  5  9  1  0  0  0  0
  6  7  2  0  0  0  0
  6  8  1  0  0  0  0
  7 99  1  0  0  0  0
  8100  1  0  0  0  0
  8101  1  0  0  0  0
  8102  1  0  0  0  0
  9 10  2  0  0  0  0
  9 11  2  0  0  0  0
  9 12  1  0  0  0  0
 12 13  1  0  0  0  0
 13 14  1  0  0  0  0
 13103  1  0  0  0  0
 13104  1  0  0  0  0
 14 15  1  0  0  0  0
 14 19  1  0  0  0  0
 14105  1  0  0  0  0
 15 16  1  0  0  0  0
 15 70  1  0  0  0  0
 15106  1  0  0  0  0
 16 17  1  0  0  0  0
 16 93  1  0  0  0  0
 16107  1  0  0  0  0
 17 18  1  0  0  0  0
 17 92  1  0  0  0  0
 17108  1  0  0  0  0
 18 19  1  0  0  0  0
 18 20  1  0  0  0  0
 18109  1  0  0  0  0
 20 21  1  0  0  0  0
 21 22  1  0  0  0  0
 21 26  1  0  0  0  0
 21110  1  0  0  0  0
 22 23  1  0  0  0  0
 22 90  1  0  0  0  0
 22111  1  0  0  0  0
 23 24  1  0  0  0  0
 24 25  1  0  0  0  0
 24 29  1  0  0  0  0
 24112  1  0  0  0  0
 25 26  1  0  0  0  0
 25 28  1  0  0  0  0
 25113  1  0  0  0  0
 26 27  1  0  0  0  0
 26114  1  0  0  0  0
 27115  1  0  0  0  0
 28116  1  0  0  0  0
 29 30  1  0  0  0  0
 30 31  1  0  0  0  0
 30 35  1  0  0  0  0
 30117  1  0  0  0  0
 31 32  1  0  0  0  0
 31 88  1  0  0  0  0
 31118  1  0  0  0  0
 32 33  1  0  0  0  0
 33 34  1  0  0  0  0
 33 38  1  0  0  0  0
 33119  1  0  0  0  0
 34 35  1  0  0  0  0
 34 37  1  0  0  0  0
 34120  1  0  0  0  0
 35 36  1  0  0  0  0
 35121  1  0  0  0  0
 36122  1  0  0  0  0
 37123  1  0  0  0  0
 38 39  1  0  0  0  0
 39 40  1  0  0  0  0
 39 44  1  0  0  0  0
 39124  1  0  0  0  0
 40 41  1  0  0  0  0
 40 86  1  0  0  0  0
 40125  1  0  0  0  0
 41 42  1  0  0  0  0
 42 43  1  0  0  0  0
 42 47  1  0  0  0  0
 42126  1  0  0  0  0
 43 44  1  0  0  0  0
 43 46  1  0  0  0  0
 43127  1  0  0  0  0
 44 45  1  0  0  0  0
 44128  1  0  0  0  0
 45129  1  0  0  0  0
 46130  1  0  0  0  0
 47 48  1  0  0  0  0
 48 49  1  0  0  0  0
 48 53  1  0  0  0  0
 48131  1  0  0  0  0
 49 50  1  0  0  0  0
 49 84  1  0  0  0  0
 49132  1  0  0  0  0
 50 51  1  0  0  0  0
 51 52  1  0  0  0  0
 51 56  1  0  0  0  0
 51133  1  0  0  0  0
 52 53  1  0  0  0  0
 52 55  1  0  0  0  0
 52134  1  0  0  0  0
 53 54  1  0  0  0  0
 53135  1  0  0  0  0
 54136  1  0  0  0  0
 55137  1  0  0  0  0
 56 57  1  0  0  0  0
 57 58  1  0  0  0  0
 57 62  1  0  0  0  0
 57138  1  0  0  0  0
 58 59  1  0  0  0  0
 58 82  1  0  0  0  0
 58139  1  0  0  0  0
 59 60  1  0  0  0  0
 60 61  1  0  0  0  0
 60 65  1  0  0  0  0
 60140  1  0  0  0  0
 61 62  1  0  0  0  0
 61 64  1  0  0  0  0
 61141  1  0  0  0  0
 62 63  1  0  0  0  0
 62142  1  0  0  0  0
 63143  1  0  0  0  0
 64144  1  0  0  0  0
 65 66  1  0  0  0  0
 66 67  1  0  0  0  0
 66 72  1  0  0  0  0
 66145  1  0  0  0  0
 67 68  1  0  0  0  0
 67 75  1  0  0  0  0
 67146  1  0  0  0  0
 68 69  1  0  0  0  0
 69 70  1  0  0  0  0
 69 71  1  0  0  0  0
 69147  1  0  0  0  0
 71 72  1  0  0  0  0
 71 74  1  0  0  0  0
 71148  1  0  0  0  0
 72 73  1  0  0  0  0
 72149  1  0  0  0  0
 73150  1  0  0  0  0
 74151  1  0  0  0  0
 75 76  1  0  0  0  0
 75152  1  0  0  0  0
 75153  1  0  0  0  0
 76 77  2  0  0  0  0
 76 81  1  0  0  0  0
 77 78  1  0  0  0  0
 77154  1  0  0  0  0
 78 79  2  0  0  0  0
 78155  1  0  0  0  0
 79 80  1  0  0  0  0
 79156  1  0  0  0  0
 80 81  2  0  0  0  0
 80157  1  0  0  0  0
 81158  1  0  0  0  0
 82 83  1  0  0  0  0
 82159  1  0  0  0  0
 82160  1  0  0  0  0
 83161  1  0  0  0  0
 84 85  1  0  0  0  0
 84162  1  0  0  0  0
 84163  1  0  0  0  0
 85164  1  0  0  0  0
 86 87  1  0  0  0  0
 86165  1  0  0  0  0
 86166  1  0  0  0  0
 87167  1  0  0  0  0
 88 89  1  0  0  0  0
 88168  1  0  0  0  0
 88169  1  0  0  0  0
 89170  1  0  0  0  0
 90 91  1  0  0  0  0
 90171  1  0  0  0  0
 90172  1  0  0  0  0
 91173  1  0  0  0  0
 92174  1  0  0  0  0
 93175  1  0  0  0  0
 94176  1  0  0  0  0
 94177  1  0  0  0  0
 94178  1  0  0  0  0
M  CHG  1  76   1
M  END
