
 OpenBabel10072619503D

 29 29  0  0  0  0  0  0  0  0999 V2000
    2.8461   -0.9996   -0.3090 C   0  0  0  0  0  0  0  0  0  0  0  0
    1.4798   -0.3671   -0.1820 C   0  0  0  0  0  0  0  0  0  0  0  0
    0.3167   -1.0527   -0.0553 C   0  0  0  0  0  0  0  0  0  0  0  0
   -1.0620   -0.3572   -0.0205 C   0  0  0  0  0  0  0  0  0  0  0  0
   -0.9548    1.1275   -0.4623 C   0  0  0  0  0  0  0  0  0  0  0  0
    0.2347    1.8330    0.1690 C   0  0  0  0  0  0  0  0  0  0  0  0
    1.5323    1.1445   -0.2328 C   0  0  0  0  0  0  0  0  0  0  0  0
   -2.0819   -1.0255   -0.9718 C   0  0  0  0  0  0  0  0  0  0  0  0
   -1.6279   -0.4209    1.4164 C   0  0  0  0  0  0  0  0  0  0  0  0
    0.2964   -2.5061    0.0635 C   0  0  0  0  0  0  0  0  0  0  0  0
    0.7779   -3.1706    1.1219 C   0  0  0  0  0  0  0  0  0  0  0  0
    2.8173   -2.0767   -0.4916 H   0  0  0  0  0  0  0  0  0  0  0  0
    3.4280   -0.8222    0.6013 H   0  0  0  0  0  0  0  0  0  0  0  0
    3.3861   -0.5576   -1.1537 H   0  0  0  0  0  0  0  0  0  0  0  0
   -1.8750    1.6696   -0.2101 H   0  0  0  0  0  0  0  0  0  0  0  0
   -0.8541    1.1869   -1.5551 H   0  0  0  0  0  0  0  0  0  0  0  0
    0.1380    1.8442    1.2607 H   0  0  0  0  0  0  0  0  0  0  0  0
    0.2619    2.8808   -0.1518 H   0  0  0  0  0  0  0  0  0  0  0  0
    2.3317    1.5100    0.4235 H   0  0  0  0  0  0  0  0  0  0  0  0
    1.7969    1.4442   -1.2550 H   0  0  0  0  0  0  0  0  0  0  0  0
   -1.6898   -1.0882   -1.9936 H   0  0  0  0  0  0  0  0  0  0  0  0
   -3.0167   -0.4534   -1.0088 H   0  0  0  0  0  0  0  0  0  0  0  0
   -2.3434   -2.0395   -0.6493 H   0  0  0  0  0  0  0  0  0  0  0  0
   -0.9268   -0.0084    2.1502 H   0  0  0  0  0  0  0  0  0  0  0  0
   -1.8464   -1.4517    1.7185 H   0  0  0  0  0  0  0  0  0  0  0  0
   -2.5644    0.1430    1.4969 H   0  0  0  0  0  0  0  0  0  0  0  0
   -0.1689   -3.0587   -0.7492 H   0  0  0  0  0  0  0  0  0  0  0  0
    1.2304   -2.6518    1.9613 H   0  0  0  0  0  0  0  0  0  0  0  0
    0.7241   -4.2530    1.1675 H   0  0  0  0  0  0  0  0  0  0  0  0
  1  2  1  0  0  0  0
  1 12  1  0  0  0  0
  1 13  1  0  0  0  0
  1 14  1  0  0  0  0
  2  3  2  0  0  0  0
  2  7  1  0  0  0  0
  3  4  1  0  0  0  0
  3 10  1  0  0  0  0
  4  5  1  0  0  0  0
  4  8  1  0  0  0  0
  4  9  1  0  0  0  0
  5  6  1  0  0  0  0
  5 15  1  0  0  0  0
  5 16  1  0  0  0  0
  6  7  1  0  0  0  0
  6 17  1  0  0  0  0
  6 18  1  0  0  0  0
  7 19  1  0  0  0  0
  7 20  1  0  0  0  0
  8 21  1  0  0  0  0
  8 22  1  0  0  0  0
  8 23  1  0  0  0  0
  9 24  1  0  0  0  0
  9 25  1  0  0  0  0
  9 26  1  0  0  0  0
 10 11  2  0  0  0  0
 10 27  1  0  0  0  0
 11 28  1  0  0  0  0
 11 29  1  0  0  0  0
M  END
