
 OpenBabel10072619593D

 41 43  0  0  0  0  0  0  0  0999 V2000
   -5.8985    0.6889   -4.3851 C   0  0  0  0  0  0  0  0  0  0  0  0
   -5.6473    0.2625   -5.6892 C   0  0  0  0  0  0  0  0  0  0  0  0
   -6.7066    0.1021   -6.5716 C   0  0  0  0  0  0  0  0  0  0  0  0
   -8.0103    0.3838   -6.1815 C   0  0  0  0  0  0  0  0  0  0  0  0
   -8.2643    0.7992   -4.8724 C   0  0  0  0  0  0  0  0  0  0  0  0
   -7.2124    0.9315   -3.9500 C   0  0  0  0  0  0  0  0  0  0  0  0
   -7.4929    1.3943   -2.5368 C   0  0  0  0  0  0  0  0  0  0  0  0
   -6.7118    0.6540   -1.5531 N   0  0  0  0  0  0  0  0  0  0  0  0
   -5.7679    1.1874   -0.7399 C   0  0  0  0  0  0  0  0  0  0  0  0
   -4.4016    0.2925   -0.3898 S   0  0  0  0  0  0  0  0  0  0  0  0
   -5.8737    2.4550   -0.2755 N   0  0  0  0  0  0  0  0  0  0  0  0
   -7.0163    3.1013    0.1678 C   0  0  0  0  0  0  0  0  0  0  0  0
   -8.2819    2.5980    0.3541 C   0  0  0  0  0  0  0  0  0  0  0  0
   -9.0290    3.6181    0.8785 N   0  0  0  0  0  0  0  0  0  0  0  0
   -8.3384    4.7721    1.0004 N   0  0  0  0  0  0  0  0  0  0  0  0
   -7.1052    4.4382    0.6124 C   0  0  0  0  0  0  0  0  0  0  0  0
  -10.4427    3.5720    1.2249 C   0  0  0  0  0  0  0  0  0  0  0  0
  -10.6582    3.3286    2.6992 C   0  0  0  0  0  0  0  0  0  0  0  0
  -10.5055    4.3802    3.6178 C   0  0  0  0  0  0  0  0  0  0  0  0
  -10.7388    4.1753    4.9793 C   0  0  0  0  0  0  0  0  0  0  0  0
  -11.1171    2.9143    5.4320 C   0  0  0  0  0  0  0  0  0  0  0  0
  -11.2511    1.8533    4.5379 C   0  0  0  0  0  0  0  0  0  0  0  0
  -11.0188    2.0587    3.1749 C   0  0  0  0  0  0  0  0  0  0  0  0
  -11.4533    2.6393    7.2722 Br  0  0  0  0  0  0  0  0  0  0  0  0
   -6.4669   -0.3221   -7.8190 F   0  0  0  0  0  0  0  0  0  0  0  0
   -5.0582    0.8264   -3.7079 H   0  0  0  0  0  0  0  0  0  0  0  0
   -4.6334    0.0598   -6.0183 H   0  0  0  0  0  0  0  0  0  0  0  0
   -8.8174    0.2799   -6.9003 H   0  0  0  0  0  0  0  0  0  0  0  0
   -9.2894    1.0173   -4.5797 H   0  0  0  0  0  0  0  0  0  0  0  0
   -8.5436    1.2130   -2.2898 H   0  0  0  0  0  0  0  0  0  0  0  0
   -7.2903    2.4667   -2.4842 H   0  0  0  0  0  0  0  0  0  0  0  0
   -6.5319   -0.3120   -1.7985 H   0  0  0  0  0  0  0  0  0  0  0  0
   -5.0055    2.8642    0.0532 H   0  0  0  0  0  0  0  0  0  0  0  0
   -8.7019    1.6139    0.2093 H   0  0  0  0  0  0  0  0  0  0  0  0
   -6.3277    5.1900    0.6444 H   0  0  0  0  0  0  0  0  0  0  0  0
  -10.9080    2.7824    0.6227 H   0  0  0  0  0  0  0  0  0  0  0  0
  -10.8958    4.5224    0.9171 H   0  0  0  0  0  0  0  0  0  0  0  0
  -10.1984    5.3676    3.2738 H   0  0  0  0  0  0  0  0  0  0  0  0
  -10.6232    5.0042    5.6729 H   0  0  0  0  0  0  0  0  0  0  0  0
  -11.5391    0.8664    4.8907 H   0  0  0  0  0  0  0  0  0  0  0  0
  -11.1273    1.2198    2.4903 H   0  0  0  0  0  0  0  0  0  0  0  0
  1  2  2  0  0  0  0
  1  6  1  0  0  0  0
  1 26  1  0  0  0  0
  2  3  1  0  0  0  0
  2 27  1  0  0  0  0
  3  4  2  0  0  0  0
  3 25  1  0  0  0  0
  4  5  1  0  0  0  0
  4 28  1  0  0  0  0
  5  6  2  0  0  0  0
  5 29  1  0  0  0  0
  6  7  1  0  0  0  0
  7  8  1  0  0  0  0
  7 30  1  0  0  0  0
  7 31  1  0  0  0  0
  8  9  1  0  0  0  0
  8 32  1  0  0  0  0
  9 10  2  0  0  0  0
  9 11  1  0  0  0  0
 11 12  1  0  0  0  0
 11 33  1  0  0  0  0
 12 13  2  0  0  0  0
 12 16  1  0  0  0  0
 13 14  1  0  0  0  0
 13 34  1  0  0  0  0
 14 15  1  0  0  0  0
 14 17  1  0  0  0  0
 15 16  2  0  0  0  0
 16 35  1  0  0  0  0
 17 18  1  0  0  0  0
 17 36  1  0  0  0  0
 17 37  1  0  0  0  0
 18 19  2  0  0  0  0
 18 23  1  0  0  0  0
 19 20  1  0  0  0  0
 19 38  1  0  0  0  0
 20 21  2  0  0  0  0
 20 39  1  0  0  0  0
 21 22  1  0  0  0  0
 21 24  1  0  0  0  0
 22 23  2  0  0  0  0
 22 40  1  0  0  0  0
 23 41  1  0  0  0  0
M  END
