
 OpenBabel10072620033D

 37 38  0  0  0  0  0  0  0  0999 V2000
   -1.6900   -4.8513    3.6880 C   0  0  0  0  0  0  0  0  0  0  0  0
   -1.5906   -3.8631    2.5651 C   0  0  0  0  0  0  0  0  0  0  0  0
   -2.5457   -2.8604    2.4007 C   0  0  0  0  0  0  0  0  0  0  0  0
   -2.3960   -1.9586    1.3552 C   0  0  0  0  0  0  0  0  0  0  0  0
   -1.3687   -2.0278    0.4762 N   0  0  0  0  0  0  0  0  0  0  0  0
   -0.4627   -3.0171    0.6196 C   0  0  0  0  0  0  0  0  0  0  0  0
   -0.5291   -3.9366    1.6563 C   0  0  0  0  0  0  0  0  0  0  0  0
    0.5537   -2.9664   -0.3369 N   0  0  0  0  0  0  0  0  0  0  0  0
    1.5879   -3.7973   -0.6576 C   0  0  0  0  0  0  0  0  0  0  0  0
    2.7804   -3.1456   -1.6397 S   0  0  0  0  0  0  0  0  0  0  0  0
    1.4878   -5.0956   -0.2383 N   0  0  0  0  0  0  0  0  0  0  0  0
    2.4533   -6.1270   -0.1304 C   0  0  0  0  0  0  0  0  0  0  0  0
    1.9683   -7.4546   -0.0901 C   0  0  0  0  0  0  0  0  0  0  0  0
    2.8650   -8.5205    0.0304 C   0  0  0  0  0  0  0  0  0  0  0  0
    4.2349   -8.2715    0.1328 C   0  0  0  0  0  0  0  0  0  0  0  0
    4.7048   -6.9611    0.1333 C   0  0  0  0  0  0  0  0  0  0  0  0
    3.8222   -5.8891    0.0108 C   0  0  0  0  0  0  0  0  0  0  0  0
    6.3914   -6.6660    0.3107 Cl  0  0  0  0  0  0  0  0  0  0  0  0
    0.6015   -7.5843   -0.1790 O   0  0  0  0  0  0  0  0  0  0  0  0
    0.0706   -8.9038   -0.1431 C   0  0  0  0  0  0  0  0  0  0  0  0
   -3.3808   -0.8484    1.1443 C   0  0  0  0  0  0  0  0  0  0  0  0
   -2.5042   -4.5976    4.3749 H   0  0  0  0  0  0  0  0  0  0  0  0
   -0.7603   -4.8635    4.2660 H   0  0  0  0  0  0  0  0  0  0  0  0
   -1.8804   -5.8532    3.2905 H   0  0  0  0  0  0  0  0  0  0  0  0
   -3.3842   -2.7747    3.0849 H   0  0  0  0  0  0  0  0  0  0  0  0
    0.2397   -4.6827    1.8123 H   0  0  0  0  0  0  0  0  0  0  0  0
    0.5348   -2.0910   -0.8476 H   0  0  0  0  0  0  0  0  0  0  0  0
    0.5355   -5.4528   -0.2303 H   0  0  0  0  0  0  0  0  0  0  0  0
    2.5349   -9.5537    0.0498 H   0  0  0  0  0  0  0  0  0  0  0  0
    4.9291   -9.1026    0.2248 H   0  0  0  0  0  0  0  0  0  0  0  0
    4.2202   -4.8821    0.0598 H   0  0  0  0  0  0  0  0  0  0  0  0
   -1.0181   -8.8270   -0.2210 H   0  0  0  0  0  0  0  0  0  0  0  0
    0.3019   -9.3953    0.8077 H   0  0  0  0  0  0  0  0  0  0  0  0
    0.4242   -9.4965   -0.9931 H   0  0  0  0  0  0  0  0  0  0  0  0
   -4.1440   -0.8260    1.9284 H   0  0  0  0  0  0  0  0  0  0  0  0
   -3.8824   -0.9758    0.1800 H   0  0  0  0  0  0  0  0  0  0  0  0
   -2.8613    0.1151    1.1494 H   0  0  0  0  0  0  0  0  0  0  0  0
  1  2  1  0  0  0  0
  1 22  1  0  0  0  0
  1 23  1  0  0  0  0
  1 24  1  0  0  0  0
  2  3  2  0  0  0  0
  2  7  1  0  0  0  0
  3  4  1  0  0  0  0
  3 25  1  0  0  0  0
  4  5  2  0  0  0  0
  4 21  1  0  0  0  0
  5  6  1  0  0  0  0
  6  7  2  0  0  0  0
  6  8  1  0  0  0  0
  7 26  1  0  0  0  0
  8  9  1  0  0  0  0
  8 27  1  0  0  0  0
  9 10  2  0  0  0  0
  9 11  1  0  0  0  0
 11 12  1  0  0  0  0
 11 28  1  0  0  0  0
 12 13  2  0  0  0  0
 12 17  1  0  0  0  0
 13 14  1  0  0  0  0
 13 19  1  0  0  0  0
 14 15  2  0  0  0  0
 14 29  1  0  0  0  0
 15 16  1  0  0  0  0
 15 30  1  0  0  0  0
 16 17  2  0  0  0  0
 16 18  1  0  0  0  0
 17 31  1  0  0  0  0
 19 20  1  0  0  0  0
 20 32  1  0  0  0  0
 20 33  1  0  0  0  0
 20 34  1  0  0  0  0
 21 35  1  0  0  0  0
 21 36  1  0  0  0  0
 21 37  1  0  0  0  0
M  END
