
 OpenBabel10072620033D

 51 54  0  0  0  0  0  0  0  0999 V2000
   -2.6850   -0.5837   -2.2837 C   0  0  0  0  0  0  0  0  0  0  0  0
   -3.8629   -1.5398   -2.5457 C   0  0  0  0  0  0  0  0  0  0  0  0
   -3.7580   -2.7136   -1.7172 O   0  0  0  0  0  0  0  0  0  0  0  0
   -3.7489   -2.3681   -0.3169 C   0  0  0  0  0  0  0  0  0  0  0  0
   -2.6124   -1.3881    0.0062 C   0  0  0  0  0  0  0  0  0  0  0  0
   -2.6961   -0.2165   -0.8613 N   0  0  0  0  0  0  0  0  0  0  0  0
   -3.3191    0.9283   -0.3751 C   0  0  0  0  0  0  0  0  0  0  0  0
   -3.8482    1.0071    0.7316 O   0  0  0  0  0  0  0  0  0  0  0  0
   -3.4688    2.0702   -1.3500 C   0  0  0  0  0  0  0  0  0  0  0  0
   -2.4884    2.9802   -1.5057 C   0  0  0  0  0  0  0  0  0  0  0  0
   -1.2120    3.0186   -0.7589 C   0  0  0  0  0  0  0  0  0  0  0  0
   -1.2801    3.1012    0.6427 C   0  0  0  0  0  0  0  0  0  0  0  0
   -0.1218    3.1196    1.4093 C   0  0  0  0  0  0  0  0  0  0  0  0
    1.1219    3.1031    0.7859 C   0  0  0  0  0  0  0  0  0  0  0  0
    1.2307    3.0716   -0.6124 C   0  0  0  0  0  0  0  0  0  0  0  0
    2.5022    3.0826   -1.2137 C   0  0  0  0  0  0  0  0  0  0  0  0
    2.6423    3.0559   -2.5998 C   0  0  0  0  0  0  0  0  0  0  0  0
    1.5106    2.9935   -3.4018 C   0  0  0  0  0  0  0  0  0  0  0  0
    0.2376    2.9778   -2.8183 C   0  0  0  0  0  0  0  0  0  0  0  0
    0.0583    3.0252   -1.4118 C   0  0  0  0  0  0  0  0  0  0  0  0
   -4.6791    2.0645   -2.0173 N   0  0  0  0  0  0  0  0  0  0  0  0
   -5.0543    2.7959   -3.1261 C   0  0  0  0  0  0  0  0  0  0  0  0
   -4.3159    3.5256   -3.7756 O   0  0  0  0  0  0  0  0  0  0  0  0
   -6.4632    2.5871   -3.5834 C   0  0  0  0  0  0  0  0  0  0  0  0
   -7.4635    2.1166   -2.7186 C   0  0  0  0  0  0  0  0  0  0  0  0
   -8.7524    1.8836   -3.2013 C   0  0  0  0  0  0  0  0  0  0  0  0
   -9.0599    2.1505   -4.5335 C   0  0  0  0  0  0  0  0  0  0  0  0
   -8.0838    2.6587   -5.3904 C   0  0  0  0  0  0  0  0  0  0  0  0
   -6.7874    2.8740   -4.9168 C   0  0  0  0  0  0  0  0  0  0  0  0
   -2.7543    0.2859   -2.9387 H   0  0  0  0  0  0  0  0  0  0  0  0
   -1.7315   -1.0879   -2.4867 H   0  0  0  0  0  0  0  0  0  0  0  0
   -3.8685   -1.8608   -3.5921 H   0  0  0  0  0  0  0  0  0  0  0  0
   -4.8267   -1.0552   -2.3409 H   0  0  0  0  0  0  0  0  0  0  0  0
   -3.6134   -3.2912    0.2549 H   0  0  0  0  0  0  0  0  0  0  0  0
   -4.7282   -1.9543   -0.0483 H   0  0  0  0  0  0  0  0  0  0  0  0
   -1.6434   -1.8601   -0.1935 H   0  0  0  0  0  0  0  0  0  0  0  0
   -2.6342   -1.0985    1.0592 H   0  0  0  0  0  0  0  0  0  0  0  0
   -2.6053    3.8111   -2.1980 H   0  0  0  0  0  0  0  0  0  0  0  0
   -2.2430    3.1362    1.1517 H   0  0  0  0  0  0  0  0  0  0  0  0
   -0.1896    3.1420    2.4935 H   0  0  0  0  0  0  0  0  0  0  0  0
    2.0142    3.1226    1.4071 H   0  0  0  0  0  0  0  0  0  0  0  0
    3.4018    3.1110   -0.6014 H   0  0  0  0  0  0  0  0  0  0  0  0
    3.6332    3.0814   -3.0464 H   0  0  0  0  0  0  0  0  0  0  0  0
    1.6152    2.9598   -4.4837 H   0  0  0  0  0  0  0  0  0  0  0  0
   -0.6243    2.9305   -3.4809 H   0  0  0  0  0  0  0  0  0  0  0  0
   -5.3233    1.3650   -1.6709 H   0  0  0  0  0  0  0  0  0  0  0  0
   -7.2739    1.9457   -1.6634 H   0  0  0  0  0  0  0  0  0  0  0  0
   -9.5202    1.5054   -2.5294 H   0  0  0  0  0  0  0  0  0  0  0  0
  -10.0684    1.9783   -4.9015 H   0  0  0  0  0  0  0  0  0  0  0  0
   -8.3328    2.8898   -6.4233 H   0  0  0  0  0  0  0  0  0  0  0  0
   -6.0328    3.2649   -5.5983 H   0  0  0  0  0  0  0  0  0  0  0  0
  1  2  1  0  0  0  0
  1  6  1  0  0  0  0
  1 30  1  0  0  0  0
  1 31  1  0  0  0  0
  2  3  1  0  0  0  0
  2 32  1  0  0  0  0
  2 33  1  0  0  0  0
  3  4  1  0  0  0  0
  4  5  1  0  0  0  0
  4 34  1  0  0  0  0
  4 35  1  0  0  0  0
  5  6  1  0  0  0  0
  5 36  1  0  0  0  0
  5 37  1  0  0  0  0
  6  7  1  0  0  0  0
  7  8  2  0  0  0  0
  7  9  1  0  0  0  0
  9 10  2  0  0  0  0
  9 21  1  0  0  0  0
 10 11  1  0  0  0  0
 10 38  1  0  0  0  0
 11 12  2  0  0  0  0
 11 20  1  0  0  0  0
 12 13  1  0  0  0  0
 12 39  1  0  0  0  0
 13 14  2  0  0  0  0
 13 40  1  0  0  0  0
 14 15  1  0  0  0  0
 14 41  1  0  0  0  0
 15 16  2  0  0  0  0
 15 20  1  0  0  0  0
 16 17  1  0  0  0  0
 16 42  1  0  0  0  0
 17 18  2  0  0  0  0
 17 43  1  0  0  0  0
 18 19  1  0  0  0  0
 18 44  1  0  0  0  0
 19 20  2  0  0  0  0
 19 45  1  0  0  0  0
 21 22  1  0  0  0  0
 21 46  1  0  0  0  0
 22 23  2  0  0  0  0
 22 24  1  0  0  0  0
 24 25  2  0  0  0  0
 24 29  1  0  0  0  0
 25 26  1  0  0  0  0
 25 47  1  0  0  0  0
 26 27  2  0  0  0  0
 26 48  1  0  0  0  0
 27 28  1  0  0  0  0
 27 49  1  0  0  0  0
 28 29  2  0  0  0  0
 28 50  1  0  0  0  0
 29 51  1  0  0  0  0
M  END
