
 OpenBabel10072619443D

 38 39  0  0  0  0  0  0  0  0999 V2000
    1.5228   -2.1382    1.8878 C   0  0  0  0  0  0  0  0  0  0  0  0
    2.9689   -1.7776    2.1912 C   0  0  0  0  0  0  0  0  0  0  0  0
    3.1391   -1.3062    3.6372 C   0  0  0  0  0  0  0  0  0  0  0  0
    4.5962   -0.9910    3.9855 C   0  0  0  0  0  0  0  0  0  0  0  0
    5.1387    0.1136    3.1498 N   0  0  0  0  0  0  0  0  0  0  0  0
    4.5274    1.4325    3.4161 C   0  0  0  0  0  0  0  0  0  0  0  0
    6.8291    0.1059    2.9019 S   0  0  0  0  0  0  0  0  0  0  0  0
    7.2445   -1.2460    2.5963 O   0  0  0  0  0  0  0  0  0  0  0  0
    7.1718    1.2071    2.0266 O   0  0  0  0  0  0  0  0  0  0  0  0
    7.4558    0.5052    4.5222 C   0  0  0  0  0  0  0  0  0  0  0  0
    7.6450    1.8479    4.8666 C   0  0  0  0  0  0  0  0  0  0  0  0
    8.1202    2.1681    6.1375 C   0  0  0  0  0  0  0  0  0  0  0  0
    8.4303    1.1383    7.0412 C   0  0  0  0  0  0  0  0  0  0  0  0
    8.2710   -0.2013    6.6847 C   0  0  0  0  0  0  0  0  0  0  0  0
    7.7814   -0.5212    5.4176 C   0  0  0  0  0  0  0  0  0  0  0  0
    8.9003    1.4694    8.3174 N   0  0  0  0  0  0  0  0  0  0  0  0
    9.0658    2.7572    8.7518 C   0  0  0  0  0  0  0  0  0  0  0  0
    9.4662    3.0232    9.8790 O   0  0  0  0  0  0  0  0  0  0  0  0
    8.7368    3.8368    7.7871 C   0  0  0  0  0  0  0  0  0  0  0  0
    8.2985    3.5592    6.5520 C   0  0  0  0  0  0  0  0  0  0  0  0
    1.4223   -2.4772    0.8516 H   0  0  0  0  0  0  0  0  0  0  0  0
    0.8679   -1.2721    2.0258 H   0  0  0  0  0  0  0  0  0  0  0  0
    1.1731   -2.9422    2.5432 H   0  0  0  0  0  0  0  0  0  0  0  0
    3.2896   -0.9922    1.4983 H   0  0  0  0  0  0  0  0  0  0  0  0
    3.6056   -2.6502    2.0073 H   0  0  0  0  0  0  0  0  0  0  0  0
    2.7841   -2.0920    4.3156 H   0  0  0  0  0  0  0  0  0  0  0  0
    2.5044   -0.4321    3.8198 H   0  0  0  0  0  0  0  0  0  0  0  0
    5.1824   -1.9045    3.8391 H   0  0  0  0  0  0  0  0  0  0  0  0
    4.6737   -0.7232    5.0459 H   0  0  0  0  0  0  0  0  0  0  0  0
    3.5040    1.4493    3.0315 H   0  0  0  0  0  0  0  0  0  0  0  0
    5.0547    2.2381    2.8986 H   0  0  0  0  0  0  0  0  0  0  0  0
    4.5110    1.6539    4.4873 H   0  0  0  0  0  0  0  0  0  0  0  0
    7.4179    2.6332    4.1488 H   0  0  0  0  0  0  0  0  0  0  0  0
    8.5226   -0.9975    7.3812 H   0  0  0  0  0  0  0  0  0  0  0  0
    7.6588   -1.5649    5.1358 H   0  0  0  0  0  0  0  0  0  0  0  0
    9.1339    0.7453    8.9841 H   0  0  0  0  0  0  0  0  0  0  0  0
    8.8704    4.8521    8.1390 H   0  0  0  0  0  0  0  0  0  0  0  0
    8.0646    4.3523    5.8497 H   0  0  0  0  0  0  0  0  0  0  0  0
  1  2  1  0  0  0  0
  1 21  1  0  0  0  0
  1 22  1  0  0  0  0
  1 23  1  0  0  0  0
  2  3  1  0  0  0  0
  2 24  1  0  0  0  0
  2 25  1  0  0  0  0
  3  4  1  0  0  0  0
  3 26  1  0  0  0  0
  3 27  1  0  0  0  0
  4  5  1  0  0  0  0
  4 28  1  0  0  0  0
  4 29  1  0  0  0  0
  5  6  1  0  0  0  0
  5  7  1  0  0  0  0
  6 30  1  0  0  0  0
  6 31  1  0  0  0  0
  6 32  1  0  0  0  0
  7  8  2  0  0  0  0
  7  9  2  0  0  0  0
  7 10  1  0  0  0  0
 10 11  2  0  0  0  0
 10 15  1  0  0  0  0
 11 12  1  0  0  0  0
 11 33  1  0  0  0  0
 12 13  2  0  0  0  0
 12 20  1  0  0  0  0
 13 14  1  0  0  0  0
 13 16  1  0  0  0  0
 14 15  2  0  0  0  0
 14 34  1  0  0  0  0
 15 35  1  0  0  0  0
 16 17  1  0  0  0  0
 16 36  1  0  0  0  0
 17 18  2  0  0  0  0
 17 19  1  0  0  0  0
 19 20  2  0  0  0  0
 19 37  1  0  0  0  0
 20 38  1  0  0  0  0
M  END
