
 OpenBabel10072620023D

 54 57  0  0  1  0  0  0  0  0999 V2000
    4.7935   11.4622    5.8172 C   0  0  0  0  0  0  0  0  0  0  0  0
    5.5503   10.9047    4.6005 C   0  0  0  0  0  0  0  0  0  0  0  0
    4.7451   11.1597    3.3179 C   0  0  0  0  0  0  0  0  0  0  0  0
    6.8926   11.6549    4.4935 C   0  0  0  0  0  0  0  0  0  0  0  0
    5.8864    9.4791    4.7646 N   0  0  0  0  0  0  0  0  0  0  0  0
    4.7673    8.5528    4.8648 C   0  0  0  0  0  0  0  0  0  0  0  0
    5.2989    7.1818    5.0836 C   0  0  0  0  0  0  0  0  0  0  0  0
    5.4513    6.0943    4.2502 C   0  0  0  0  0  0  0  0  0  0  0  0
    6.0384    5.0856    5.0490 C   0  0  0  0  0  0  0  0  0  0  0  0
    6.2497    5.5170    6.2988 N   0  0  0  0  0  0  0  0  0  0  0  0
    5.7522    6.7648    6.3019 N   0  0  0  0  0  0  0  0  0  0  0  0
    6.3509    3.8212    4.6021 N   0  0  0  0  0  0  0  0  0  0  0  0
    6.9937    2.8117    5.2725 C   0  0  0  0  0  0  0  0  0  0  0  0
    7.1255    1.7312    4.7000 O   0  0  0  0  0  0  0  0  0  0  0  0
    7.4684    3.1278    6.5165 N   0  0  0  0  0  0  0  0  0  0  0  0
    8.2235    2.3451    7.4056 C   0  0  0  0  0  0  0  0  0  0  0  0
    8.5496    1.0000    7.1794 C   0  0  0  0  0  0  0  0  0  0  0  0
    9.2935    0.2548    8.1182 C   0  0  0  0  0  0  0  0  0  0  0  0
    9.7407    0.8436    9.2975 C   0  0  0  0  0  0  0  0  0  0  0  0
    9.4138    2.1689    9.5012 C   0  0  0  0  0  0  0  0  0  0  0  0
    8.6831    2.9249    8.5817 C   0  0  0  0  0  0  0  0  0  0  0  0
    8.5216    4.3141    9.1052 C   0  0  3  0  0  0  0  0  0  0  0  0
    9.1929    5.4524    8.3236 C   0  0  0  0  0  0  0  0  0  0  0  0
   10.4135    5.8481    9.1637 C   0  0  0  0  0  0  0  0  0  0  0  0
    9.9999    5.4882   10.5842 C   0  0  0  0  0  0  0  0  0  0  0  0
    9.2264    4.2861   10.3814 N   0  0  0  0  0  0  0  0  0  0  0  0
    9.8216    3.0454   10.6041 C   0  0  0  0  0  0  0  0  0  0  0  0
   10.6277    2.7419   11.4619 O   0  0  0  0  0  0  0  0  0  0  0  0
    4.6674   12.5482    5.7328 H   0  0  0  0  0  0  0  0  0  0  0  0
    5.3383   11.2681    6.7483 H   0  0  0  0  0  0  0  0  0  0  0  0
    3.7929   11.0292    5.9140 H   0  0  0  0  0  0  0  0  0  0  0  0
    4.6209   12.2345    3.1411 H   0  0  0  0  0  0  0  0  0  0  0  0
    3.7412   10.7259    3.3714 H   0  0  0  0  0  0  0  0  0  0  0  0
    5.2496   10.7400    2.4403 H   0  0  0  0  0  0  0  0  0  0  0  0
    6.7335   12.7322    4.3665 H   0  0  0  0  0  0  0  0  0  0  0  0
    7.4833   11.3053    3.6391 H   0  0  0  0  0  0  0  0  0  0  0  0
    7.5000   11.5205    5.3968 H   0  0  0  0  0  0  0  0  0  0  0  0
    6.5039    9.3721    5.5656 H   0  0  0  0  0  0  0  0  0  0  0  0
    4.1738    8.5552    3.9447 H   0  0  0  0  0  0  0  0  0  0  0  0
    4.0999    8.8096    5.6946 H   0  0  0  0  0  0  0  0  0  0  0  0
    5.1877    6.0451    3.2028 H   0  0  0  0  0  0  0  0  0  0  0  0
    5.7695    7.2902    7.1696 H   0  0  0  0  0  0  0  0  0  0  0  0
    6.0849    3.5794    3.6588 H   0  0  0  0  0  0  0  0  0  0  0  0
    7.2264    4.0761    6.7971 H   0  0  0  0  0  0  0  0  0  0  0  0
    8.2319    0.4903    6.2737 H   0  0  0  0  0  0  0  0  0  0  0  0
    9.5233   -0.7884    7.9131 H   0  0  0  0  0  0  0  0  0  0  0  0
   10.3296    0.2952   10.0244 H   0  0  0  0  0  0  0  0  0  0  0  0
    7.4663    4.5354    9.3047 H   0  0  0  0  0  0  0  0  0  0  0  0
    8.5086    6.3078    8.2693 H   0  0  0  0  0  0  0  0  0  0  0  0
    9.4701    5.1866    7.2988 H   0  0  0  0  0  0  0  0  0  0  0  0
   10.6778    6.9034    9.0559 H   0  0  0  0  0  0  0  0  0  0  0  0
   11.2768    5.2448    8.8582 H   0  0  0  0  0  0  0  0  0  0  0  0
    9.3369    6.2518   11.0042 H   0  0  0  0  0  0  0  0  0  0  0  0
   10.8556    5.3300   11.2457 H   0  0  0  0  0  0  0  0  0  0  0  0
  1  2  1  0  0  0  0
  1 29  1  0  0  0  0
  1 30  1  0  0  0  0
  1 31  1  0  0  0  0
  2  3  1  0  0  0  0
  2  4  1  0  0  0  0
  2  5  1  0  0  0  0
  3 32  1  0  0  0  0
  3 33  1  0  0  0  0
  3 34  1  0  0  0  0
  4 35  1  0  0  0  0
  4 36  1  0  0  0  0
  4 37  1  0  0  0  0
  5  6  1  0  0  0  0
  5 38  1  0  0  0  0
  6  7  1  0  0  0  0
  6 39  1  0  0  0  0
  6 40  1  0  0  0  0
  7  8  2  0  0  0  0
  7 11  1  0  0  0  0
  8  9  1  0  0  0  0
  8 41  1  0  0  0  0
  9 10  2  0  0  0  0
  9 12  1  0  0  0  0
 10 11  1  0  0  0  0
 11 42  1  0  0  0  0
 12 13  1  0  0  0  0
 12 43  1  0  0  0  0
 13 14  2  0  0  0  0
 13 15  1  0  0  0  0
 15 16  1  0  0  0  0
 15 44  1  0  0  0  0
 16 17  2  0  0  0  0
 16 21  1  0  0  0  0
 17 18  1  0  0  0  0
 17 45  1  0  0  0  0
 18 19  2  0  0  0  0
 18 46  1  0  0  0  0
 19 20  1  0  0  0  0
 19 47  1  0  0  0  0
 20 21  2  0  0  0  0
 20 27  1  0  0  0  0
 21 22  1  0  0  0  0
 22 23  1  0  0  0  0
 22 26  1  0  0  0  0
 22 48  1  0  0  0  0
 23 24  1  0  0  0  0
 23 49  1  0  0  0  0
 23 50  1  0  0  0  0
 24 25  1  0  0  0  0
 24 51  1  0  0  0  0
 24 52  1  0  0  0  0
 25 26  1  0  0  0  0
 25 53  1  0  0  0  0
 25 54  1  0  0  0  0
 26 27  1  0  0  0  0
 27 28  2  0  0  0  0
M  END
