
 OpenBabel10072619553D

 56 59  0  0  1  0  0  0  0  0999 V2000
    6.4326    2.3937   -0.2906 C   0  0  0  0  0  0  0  0  0  0  0  0
    5.7868    1.1942    0.3725 C   0  0  0  0  0  0  0  0  0  0  0  0
    6.3809   -0.3439   -0.3143 S   0  0  0  0  0  0  0  0  0  0  0  0
    5.9183   -0.4419   -1.6821 O   0  0  0  0  0  0  0  0  0  0  0  0
    7.7760   -0.5097    0.0278 O   0  0  0  0  0  0  0  0  0  0  0  0
    5.4261   -1.4494    0.5548 N   0  0  0  0  0  0  0  0  0  0  0  0
    6.1144   -2.3205    1.4489 C   0  0  0  0  0  0  0  0  0  0  0  0
    6.3747   -1.9125    2.7547 C   0  0  0  0  0  0  0  0  0  0  0  0
    7.0713   -2.7606    3.6229 C   0  0  0  0  0  0  0  0  0  0  0  0
    7.5388   -4.0051    3.1759 C   0  0  0  0  0  0  0  0  0  0  0  0
    7.2961   -4.3934    1.8524 C   0  0  0  0  0  0  0  0  0  0  0  0
    6.5896   -3.5481    0.9894 C   0  0  0  0  0  0  0  0  0  0  0  0
    8.3128   -4.8633    4.1099 C   0  0  0  0  0  0  0  0  0  0  0  0
    8.4874   -4.5746    5.3629 N   0  0  0  0  0  0  0  0  0  0  0  0
    9.3482   -5.6124    5.8957 N   0  0  0  0  0  0  0  0  0  0  0  0
    9.4772   -6.7418    4.9653 C   0  0  3  0  0  0  0  0  0  0  0  0
    9.0245   -6.1115    3.6401 C   0  0  0  0  0  0  0  0  0  0  0  0
    8.6150   -7.9225    5.3113 C   0  0  0  0  0  0  0  0  0  0  0  0
    7.2854   -7.9695    5.6915 C   0  0  0  0  0  0  0  0  0  0  0  0
    6.8264   -9.3015    5.9053 C   0  0  0  0  0  0  0  0  0  0  0  0
    7.8106  -10.2315    5.6637 C   0  0  0  0  0  0  0  0  0  0  0  0
    9.2817   -9.5021    5.1972 S   0  0  0  0  0  0  0  0  0  0  0  0
    9.6538   -5.7262    7.5595 S   0  0  0  0  0  0  0  0  0  0  0  0
    9.7470   -4.3922    8.1210 O   0  0  0  0  0  0  0  0  0  0  0  0
    8.7807   -6.7163    8.1553 O   0  0  0  0  0  0  0  0  0  0  0  0
   11.3082   -6.3840    7.5841 C   0  0  0  0  0  0  0  0  0  0  0  0
   12.3626   -5.5778    7.1451 C   0  0  0  0  0  0  0  0  0  0  0  0
   13.6689   -6.0735    7.1686 C   0  0  0  0  0  0  0  0  0  0  0  0
   13.9197   -7.3650    7.6396 C   0  0  0  0  0  0  0  0  0  0  0  0
   12.8551   -8.1566    8.0871 C   0  0  0  0  0  0  0  0  0  0  0  0
   11.5468   -7.6714    8.0655 C   0  0  0  0  0  0  0  0  0  0  0  0
   15.1457   -7.9669    7.7105 O   0  0  0  0  0  0  0  0  0  0  0  0
   16.2729   -7.1756    7.3540 C   0  0  0  0  0  0  0  0  0  0  0  0
    6.0525    3.3196    0.1523 H   0  0  0  0  0  0  0  0  0  0  0  0
    6.2190    2.4154   -1.3641 H   0  0  0  0  0  0  0  0  0  0  0  0
    7.5196    2.3767   -0.1658 H   0  0  0  0  0  0  0  0  0  0  0  0
    4.7035    1.2230    0.2271 H   0  0  0  0  0  0  0  0  0  0  0  0
    6.0103    1.1865    1.4428 H   0  0  0  0  0  0  0  0  0  0  0  0
    4.8118   -1.9266   -0.1094 H   0  0  0  0  0  0  0  0  0  0  0  0
    6.0346   -0.9436    3.1083 H   0  0  0  0  0  0  0  0  0  0  0  0
    7.2599   -2.4317    4.6439 H   0  0  0  0  0  0  0  0  0  0  0  0
    7.6534   -5.3404    1.4595 H   0  0  0  0  0  0  0  0  0  0  0  0
    6.4294   -3.8505   -0.0423 H   0  0  0  0  0  0  0  0  0  0  0  0
   10.5298   -7.0333    4.8796 H   0  0  0  0  0  0  0  0  0  0  0  0
    8.3797   -6.7636    3.0461 H   0  0  0  0  0  0  0  0  0  0  0  0
    9.8883   -5.8022    3.0421 H   0  0  0  0  0  0  0  0  0  0  0  0
    6.6729   -7.0861    5.8333 H   0  0  0  0  0  0  0  0  0  0  0  0
    5.8259   -9.5640    6.2271 H   0  0  0  0  0  0  0  0  0  0  0  0
    7.7411  -11.3077    5.7444 H   0  0  0  0  0  0  0  0  0  0  0  0
   12.1716   -4.5654    6.7938 H   0  0  0  0  0  0  0  0  0  0  0  0
   14.4659   -5.4265    6.8163 H   0  0  0  0  0  0  0  0  0  0  0  0
   13.0502   -9.1589    8.4629 H   0  0  0  0  0  0  0  0  0  0  0  0
   10.7338   -8.2964    8.4285 H   0  0  0  0  0  0  0  0  0  0  0  0
   17.1660   -7.7963    7.4745 H   0  0  0  0  0  0  0  0  0  0  0  0
   16.3741   -6.3099    8.0179 H   0  0  0  0  0  0  0  0  0  0  0  0
   16.2239   -6.8652    6.3046 H   0  0  0  0  0  0  0  0  0  0  0  0
  1  2  1  0  0  0  0
  1 34  1  0  0  0  0
  1 35  1  0  0  0  0
  1 36  1  0  0  0  0
  2  3  1  0  0  0  0
  2 37  1  0  0  0  0
  2 38  1  0  0  0  0
  3  4  2  0  0  0  0
  3  5  2  0  0  0  0
  3  6  1  0  0  0  0
  6  7  1  0  0  0  0
  6 39  1  0  0  0  0
  7  8  2  0  0  0  0
  7 12  1  0  0  0  0
  8  9  1  0  0  0  0
  8 40  1  0  0  0  0
  9 10  2  0  0  0  0
  9 41  1  0  0  0  0
 10 11  1  0  0  0  0
 10 13  1  0  0  0  0
 11 12  2  0  0  0  0
 11 42  1  0  0  0  0
 12 43  1  0  0  0  0
 13 14  2  0  0  0  0
 13 17  1  0  0  0  0
 14 15  1  0  0  0  0
 15 16  1  0  0  0  0
 15 23  1  0  0  0  0
 16 17  1  0  0  0  0
 16 18  1  0  0  0  0
 16 44  1  0  0  0  0
 17 45  1  0  0  0  0
 17 46  1  0  0  0  0
 18 19  2  0  0  0  0
 18 22  1  0  0  0  0
 19 20  1  0  0  0  0
 19 47  1  0  0  0  0
 20 21  2  0  0  0  0
 20 48  1  0  0  0  0
 21 22  1  0  0  0  0
 21 49  1  0  0  0  0
 23 24  2  0  0  0  0
 23 25  2  0  0  0  0
 23 26  1  0  0  0  0
 26 27  2  0  0  0  0
 26 31  1  0  0  0  0
 27 28  1  0  0  0  0
 27 50  1  0  0  0  0
 28 29  2  0  0  0  0
 28 51  1  0  0  0  0
 29 30  1  0  0  0  0
 29 32  1  0  0  0  0
 30 31  2  0  0  0  0
 30 52  1  0  0  0  0
 31 53  1  0  0  0  0
 32 33  1  0  0  0  0
 33 54  1  0  0  0  0
 33 55  1  0  0  0  0
 33 56  1  0  0  0  0
M  END
