
 OpenBabel10072619513D

 39 41  0  0  0  0  0  0  0  0999 V2000
    1.4582   -1.7236   -0.2333 C   0  0  0  0  0  0  0  0  0  0  0  0
    0.7155   -0.4966    0.0404 N   0  0  0  0  0  0  0  0  0  0  0  0
    1.3124    0.7288   -0.1714 C   0  0  0  0  0  0  0  0  0  0  0  0
    0.6424    1.8826   -0.0205 C   0  0  0  0  0  0  0  0  0  0  0  0
   -0.7677    1.8382    0.3618 C   0  0  0  0  0  0  0  0  0  0  0  0
   -1.4196    2.8767    0.4643 O   0  0  0  0  0  0  0  0  0  0  0  0
   -1.3067    0.5768    0.5945 N   0  0  0  0  0  0  0  0  0  0  0  0
   -0.6345   -0.6275    0.3763 C   0  0  0  0  0  0  0  0  0  0  0  0
   -1.1855   -1.7252    0.4490 O   0  0  0  0  0  0  0  0  0  0  0  0
   -2.7099    0.5285    0.9723 C   0  0  0  0  0  0  0  0  0  0  0  0
    1.4288    3.3523   -0.4669 S   0  0  0  0  0  0  0  0  0  0  0  0
    2.7059    3.4075    0.2156 O   0  0  0  0  0  0  0  0  0  0  0  0
    1.3881    3.4167   -1.9161 O   0  0  0  0  0  0  0  0  0  0  0  0
    0.5590    4.7049    0.0502 N   0  0  0  0  0  0  0  0  0  0  0  0
    0.6517    5.0748    1.4694 C   0  0  0  0  0  0  0  0  0  0  0  0
   -0.1381    6.3368    1.7546 C   0  0  0  0  0  0  0  0  0  0  0  0
   -1.1509    6.3496    2.7294 C   0  0  0  0  0  0  0  0  0  0  0  0
   -1.8615    7.5195    2.9148 C   0  0  0  0  0  0  0  0  0  0  0  0
   -1.5923    8.6584    2.1941 C   0  0  0  0  0  0  0  0  0  0  0  0
   -0.5830    8.7001    1.2612 C   0  0  0  0  0  0  0  0  0  0  0  0
    0.1444    7.5261    1.0405 C   0  0  0  0  0  0  0  0  0  0  0  0
   -2.4320    9.6824    2.5025 O   0  0  0  0  0  0  0  0  0  0  0  0
   -3.3215    9.0231    3.4259 C   0  0  0  0  0  0  0  0  0  0  0  0
   -2.9007    7.6877    3.7766 O   0  0  0  0  0  0  0  0  0  0  0  0
    2.5374   -1.5527   -0.2241 H   0  0  0  0  0  0  0  0  0  0  0  0
    1.1559   -2.1031   -1.2141 H   0  0  0  0  0  0  0  0  0  0  0  0
    1.2148   -2.4876    0.5134 H   0  0  0  0  0  0  0  0  0  0  0  0
    2.3471    0.7272   -0.5046 H   0  0  0  0  0  0  0  0  0  0  0  0
   -2.8608    1.1586    1.8544 H   0  0  0  0  0  0  0  0  0  0  0  0
   -3.0666   -0.4797    1.1987 H   0  0  0  0  0  0  0  0  0  0  0  0
   -3.3105    0.9445    0.1571 H   0  0  0  0  0  0  0  0  0  0  0  0
   -0.4216    4.6351   -0.2436 H   0  0  0  0  0  0  0  0  0  0  0  0
    1.6918    5.2602    1.7562 H   0  0  0  0  0  0  0  0  0  0  0  0
    0.2633    4.2492    2.0737 H   0  0  0  0  0  0  0  0  0  0  0  0
   -1.3972    5.4718    3.3143 H   0  0  0  0  0  0  0  0  0  0  0  0
   -0.3733    9.6089    0.7087 H   0  0  0  0  0  0  0  0  0  0  0  0
    0.9254    7.5241    0.2802 H   0  0  0  0  0  0  0  0  0  0  0  0
   -4.3193    8.9609    2.9757 H   0  0  0  0  0  0  0  0  0  0  0  0
   -3.3928    9.6249    4.3370 H   0  0  0  0  0  0  0  0  0  0  0  0
  1  2  1  0  0  0  0
  1 25  1  0  0  0  0
  1 26  1  0  0  0  0
  1 27  1  0  0  0  0
  2  3  1  0  0  0  0
  2  8  1  0  0  0  0
  3  4  2  0  0  0  0
  3 28  1  0  0  0  0
  4  5  1  0  0  0  0
  4 11  1  0  0  0  0
  5  6  2  0  0  0  0
  5  7  1  0  0  0  0
  7  8  1  0  0  0  0
  7 10  1  0  0  0  0
  8  9  2  0  0  0  0
 10 29  1  0  0  0  0
 10 30  1  0  0  0  0
 10 31  1  0  0  0  0
 11 12  2  0  0  0  0
 11 13  2  0  0  0  0
 11 14  1  0  0  0  0
 14 15  1  0  0  0  0
 14 32  1  0  0  0  0
 15 16  1  0  0  0  0
 15 33  1  0  0  0  0
 15 34  1  0  0  0  0
 16 17  2  0  0  0  0
 16 21  1  0  0  0  0
 17 18  1  0  0  0  0
 17 35  1  0  0  0  0
 18 19  2  0  0  0  0
 18 24  1  0  0  0  0
 19 20  1  0  0  0  0
 19 22  1  0  0  0  0
 20 21  2  0  0  0  0
 20 36  1  0  0  0  0
 21 37  1  0  0  0  0
 22 23  1  0  0  0  0
 23 24  1  0  0  0  0
 23 38  1  0  0  0  0
 23 39  1  0  0  0  0
M  END
