
 OpenBabel10072620023D

 60 63  0  0  0  0  0  0  0  0999 V2000
    2.6845   -0.8258   -0.4074 C   0  0  0  0  0  0  0  0  0  0  0  0
    1.2635   -0.4092   -0.1560 C   0  0  0  0  0  0  0  0  0  0  0  0
    0.8410    0.8847    0.1770 C   0  0  0  0  0  0  0  0  0  0  0  0
   -0.5398    1.1443    0.2245 C   0  0  0  0  0  0  0  0  0  0  0  0
   -1.4842    0.1301    0.0363 C   0  0  0  0  0  0  0  0  0  0  0  0
   -1.0871   -1.1915   -0.1958 C   0  0  0  0  0  0  0  0  0  0  0  0
    0.2925   -1.4289   -0.2926 C   0  0  0  0  0  0  0  0  0  0  0  0
   -2.0696   -2.2903   -0.3211 C   0  0  0  0  0  0  0  0  0  0  0  0
   -3.2579   -2.2861    0.4302 C   0  0  0  0  0  0  0  0  0  0  0  0
   -4.2449   -3.2973    0.3388 C   0  0  0  0  0  0  0  0  0  0  0  0
   -3.9872   -4.4147   -0.4703 C   0  0  0  0  0  0  0  0  0  0  0  0
   -2.8127   -4.4126   -1.2523 C   0  0  0  0  0  0  0  0  0  0  0  0
   -1.8770   -3.3711   -1.1859 C   0  0  0  0  0  0  0  0  0  0  0  0
   -4.8036   -5.5635   -0.6359 N   0  0  0  0  0  0  0  0  0  0  0  0
   -5.7601   -6.1001    0.2151 C   0  0  0  0  0  0  0  0  0  0  0  0
   -5.9931   -5.7205    1.3526 O   0  0  0  0  0  0  0  0  0  0  0  0
   -6.4114   -7.1587   -0.4077 N   0  0  0  0  0  0  0  0  0  0  0  0
   -7.5079   -7.9102    0.0641 C   0  0  0  0  0  0  0  0  0  0  0  0
   -8.2088   -7.6284    1.2392 C   0  0  0  0  0  0  0  0  0  0  0  0
   -9.3256   -8.3930    1.6014 C   0  0  0  0  0  0  0  0  0  0  0  0
   -9.7407   -9.4479    0.7926 C   0  0  0  0  0  0  0  0  0  0  0  0
   -9.0399   -9.7514   -0.3706 C   0  0  0  0  0  0  0  0  0  0  0  0
   -7.9310   -8.9827   -0.7359 C   0  0  0  0  0  0  0  0  0  0  0  0
  -11.1129  -10.3898    1.2261 Cl  0  0  0  0  0  0  0  0  0  0  0  0
   -5.5105   -3.0463    1.1148 C   0  0  0  0  0  0  0  0  0  0  0  0
    1.6620    2.0030    0.4470 N   0  0  0  0  0  0  0  0  0  0  0  0
    2.9663    2.0431    0.9139 C   0  0  0  0  0  0  0  0  0  0  0  0
    3.6172    1.0882    1.3114 O   0  0  0  0  0  0  0  0  0  0  0  0
    3.4323    3.3496    0.8694 N   0  0  0  0  0  0  0  0  0  0  0  0
    4.7398    3.8089    1.1045 C   0  0  0  0  0  0  0  0  0  0  0  0
    5.8412    2.9762    1.3197 C   0  0  0  0  0  0  0  0  0  0  0  0
    7.1199    3.5229    1.4777 C   0  0  0  0  0  0  0  0  0  0  0  0
    7.2968    4.9031    1.4315 C   0  0  0  0  0  0  0  0  0  0  0  0
    6.2028    5.7428    1.2377 C   0  0  0  0  0  0  0  0  0  0  0  0
    4.9281    5.1972    1.0745 C   0  0  0  0  0  0  0  0  0  0  0  0
    8.8693    5.5763    1.6096 Cl  0  0  0  0  0  0  0  0  0  0  0  0
    3.2692   -0.0287   -0.8735 H   0  0  0  0  0  0  0  0  0  0  0  0
    2.7170   -1.6639   -1.1140 H   0  0  0  0  0  0  0  0  0  0  0  0
    3.1557   -1.1596    0.5200 H   0  0  0  0  0  0  0  0  0  0  0  0
   -0.9146    2.1415    0.4451 H   0  0  0  0  0  0  0  0  0  0  0  0
   -2.5384    0.3946    0.0975 H   0  0  0  0  0  0  0  0  0  0  0  0
    0.6406   -2.4434   -0.4840 H   0  0  0  0  0  0  0  0  0  0  0  0
   -3.4432   -1.4582    1.1138 H   0  0  0  0  0  0  0  0  0  0  0  0
   -2.5868   -5.2384   -1.9245 H   0  0  0  0  0  0  0  0  0  0  0  0
   -0.9956   -3.4232   -1.8238 H   0  0  0  0  0  0  0  0  0  0  0  0
   -4.4687   -6.2161   -1.3266 H   0  0  0  0  0  0  0  0  0  0  0  0
   -6.0912   -7.3953   -1.3329 H   0  0  0  0  0  0  0  0  0  0  0  0
   -7.9245   -6.8091    1.8943 H   0  0  0  0  0  0  0  0  0  0  0  0
   -9.8599   -8.1466    2.5155 H   0  0  0  0  0  0  0  0  0  0  0  0
   -9.3520  -10.5779   -1.0024 H   0  0  0  0  0  0  0  0  0  0  0  0
   -7.4058   -9.2431   -1.6520 H   0  0  0  0  0  0  0  0  0  0  0  0
   -5.6901   -1.9707    1.2431 H   0  0  0  0  0  0  0  0  0  0  0  0
   -5.4427   -3.4816    2.1160 H   0  0  0  0  0  0  0  0  0  0  0  0
   -6.3891   -3.4149    0.5780 H   0  0  0  0  0  0  0  0  0  0  0  0
    1.1664    2.8693    0.5819 H   0  0  0  0  0  0  0  0  0  0  0  0
    2.7683    4.0557    0.5894 H   0  0  0  0  0  0  0  0  0  0  0  0
    5.7481    1.8938    1.3525 H   0  0  0  0  0  0  0  0  0  0  0  0
    7.9675    2.8573    1.6237 H   0  0  0  0  0  0  0  0  0  0  0  0
    6.3306    6.8207    1.2026 H   0  0  0  0  0  0  0  0  0  0  0  0
    4.0891    5.8739    0.9277 H   0  0  0  0  0  0  0  0  0  0  0  0
  1  2  1  0  0  0  0
  1 37  1  0  0  0  0
  1 38  1  0  0  0  0
  1 39  1  0  0  0  0
  2  3  2  0  0  0  0
  2  7  1  0  0  0  0
  3  4  1  0  0  0  0
  3 26  1  0  0  0  0
  4  5  2  0  0  0  0
  4 40  1  0  0  0  0
  5  6  1  0  0  0  0
  5 41  1  0  0  0  0
  6  7  2  0  0  0  0
  6  8  1  0  0  0  0
  7 42  1  0  0  0  0
  8  9  2  0  0  0  0
  8 13  1  0  0  0  0
  9 10  1  0  0  0  0
  9 43  1  0  0  0  0
 10 11  2  0  0  0  0
 10 25  1  0  0  0  0
 11 12  1  0  0  0  0
 11 14  1  0  0  0  0
 12 13  2  0  0  0  0
 12 44  1  0  0  0  0
 13 45  1  0  0  0  0
 14 15  1  0  0  0  0
 14 46  1  0  0  0  0
 15 16  2  0  0  0  0
 15 17  1  0  0  0  0
 17 18  1  0  0  0  0
 17 47  1  0  0  0  0
 18 19  2  0  0  0  0
 18 23  1  0  0  0  0
 19 20  1  0  0  0  0
 19 48  1  0  0  0  0
 20 21  2  0  0  0  0
 20 49  1  0  0  0  0
 21 22  1  0  0  0  0
 21 24  1  0  0  0  0
 22 23  2  0  0  0  0
 22 50  1  0  0  0  0
 23 51  1  0  0  0  0
 25 52  1  0  0  0  0
 25 53  1  0  0  0  0
 25 54  1  0  0  0  0
 26 27  1  0  0  0  0
 26 55  1  0  0  0  0
 27 28  2  0  0  0  0
 27 29  1  0  0  0  0
 29 30  1  0  0  0  0
 29 56  1  0  0  0  0
 30 31  2  0  0  0  0
 30 35  1  0  0  0  0
 31 32  1  0  0  0  0
 31 57  1  0  0  0  0
 32 33  2  0  0  0  0
 32 58  1  0  0  0  0
 33 34  1  0  0  0  0
 33 36  1  0  0  0  0
 34 35  2  0  0  0  0
 34 59  1  0  0  0  0
 35 60  1  0  0  0  0
M  END
