
 OpenBabel10072619583D

 31 32  0  0  0  0  0  0  0  0999 V2000
   -1.2458    1.0362   -1.3159 C   0  0  0  0  0  0  0  0  0  0  0  0
    0.1477    1.0496   -1.4311 C   0  0  0  0  0  0  0  0  0  0  0  0
    0.8663   -0.1196   -1.1928 C   0  0  0  0  0  0  0  0  0  0  0  0
    0.2178   -1.2998   -0.8427 C   0  0  0  0  0  0  0  0  0  0  0  0
   -1.1733   -1.3171   -0.7285 C   0  0  0  0  0  0  0  0  0  0  0  0
   -1.9042   -0.1487   -0.9661 C   0  0  0  0  0  0  0  0  0  0  0  0
   -3.3776   -0.1419   -0.8609 C   0  0  0  0  0  0  0  0  0  0  0  0
   -4.0502   -1.2148   -0.5835 N   0  0  0  0  0  0  0  0  0  0  0  0
   -5.4449   -1.0859   -0.5321 C   0  0  0  0  0  0  0  0  0  0  0  0
   -6.1972   -0.9256   -1.7018 C   0  0  0  0  0  0  0  0  0  0  0  0
   -7.5902   -0.8396   -1.6450 C   0  0  0  0  0  0  0  0  0  0  0  0
   -8.2349   -0.9395   -0.4086 C   0  0  0  0  0  0  0  0  0  0  0  0
   -7.4990   -1.1013    0.7679 C   0  0  0  0  0  0  0  0  0  0  0  0
   -6.1042   -1.1798    0.6979 C   0  0  0  0  0  0  0  0  0  0  0  0
   -9.9998   -0.8427   -0.3484 S   0  0  0  0  0  0  0  0  0  0  0  0
  -10.4396   -0.8728    1.0265 O   0  0  0  0  0  0  0  0  0  0  0  0
  -10.4415    0.1654   -1.2841 O   0  0  0  0  0  0  0  0  0  0  0  0
  -10.4549   -2.3208   -1.0027 N   0  0  0  0  0  0  0  0  0  0  0  0
    2.2256   -0.1526   -1.2930 O   0  0  0  0  0  0  0  0  0  0  0  0
   -1.8044    1.9494   -1.5043 H   0  0  0  0  0  0  0  0  0  0  0  0
    0.6513    1.9712   -1.7074 H   0  0  0  0  0  0  0  0  0  0  0  0
    0.7927   -2.2039   -0.6606 H   0  0  0  0  0  0  0  0  0  0  0  0
   -1.6808   -2.2400   -0.4565 H   0  0  0  0  0  0  0  0  0  0  0  0
   -3.8811    0.8280   -1.0356 H   0  0  0  0  0  0  0  0  0  0  0  0
   -5.6938   -0.8815   -2.6638 H   0  0  0  0  0  0  0  0  0  0  0  0
   -8.1612   -0.7079   -2.5609 H   0  0  0  0  0  0  0  0  0  0  0  0
   -7.9954   -1.1758    1.7331 H   0  0  0  0  0  0  0  0  0  0  0  0
   -5.5214   -1.3262    1.6041 H   0  0  0  0  0  0  0  0  0  0  0  0
  -10.9385   -2.8786   -0.2983 H   0  0  0  0  0  0  0  0  0  0  0  0
  -10.9968   -2.1730   -1.8542 H   0  0  0  0  0  0  0  0  0  0  0  0
    2.5466    0.7332   -1.5277 H   0  0  0  0  0  0  0  0  0  0  0  0
  1  2  2  0  0  0  0
  1  6  1  0  0  0  0
  1 20  1  0  0  0  0
  2  3  1  0  0  0  0
  2 21  1  0  0  0  0
  3  4  2  0  0  0  0
  3 19  1  0  0  0  0
  4  5  1  0  0  0  0
  4 22  1  0  0  0  0
  5  6  2  0  0  0  0
  5 23  1  0  0  0  0
  6  7  1  0  0  0  0
  7  8  2  3  0  0  0
  7 24  1  0  0  0  0
  8  9  1  0  0  0  0
  9 10  2  0  0  0  0
  9 14  1  0  0  0  0
 10 11  1  0  0  0  0
 10 25  1  0  0  0  0
 11 12  2  0  0  0  0
 11 26  1  0  0  0  0
 12 13  1  0  0  0  0
 12 15  1  0  0  0  0
 13 14  2  0  0  0  0
 13 27  1  0  0  0  0
 14 28  1  0  0  0  0
 15 16  2  0  0  0  0
 15 17  2  0  0  0  0
 15 18  1  0  0  0  0
 18 29  1  0  0  0  0
 18 30  1  0  0  0  0
 19 31  1  0  0  0  0
M  END
