
 OpenBabel10072619473D

 57 58  0  0  0  0  0  0  0  0999 V2000
    3.2594   -6.0855    0.5418 C   0  0  0  0  0  0  0  0  0  0  0  0
    3.5825   -4.6916    0.0272 C   0  0  0  0  0  0  0  0  0  0  0  0
    3.9252   -3.7386    1.1694 C   0  0  0  0  0  0  0  0  0  0  0  0
    4.3191   -2.3545    0.6330 C   0  0  0  0  0  0  0  0  0  0  0  0
    4.8648   -1.5224    1.7130 N   0  0  0  0  0  0  0  0  0  0  0  0
    4.0222   -0.4701    2.3092 C   0  0  0  0  0  0  0  0  0  0  0  0
    2.5371   -0.8037    2.3881 C   0  0  0  0  0  0  0  0  0  0  0  0
    6.2306   -1.5915    2.0170 C   0  0  0  0  0  0  0  0  0  0  0  0
    6.8534   -0.6962    2.9056 C   0  0  0  0  0  0  0  0  0  0  0  0
    8.1866   -0.8461    3.3139 C   0  0  0  0  0  0  0  0  0  0  0  0
    8.9389   -1.9133    2.8398 C   0  0  0  0  0  0  0  0  0  0  0  0
    8.3977   -2.7641    1.8886 C   0  0  0  0  0  0  0  0  0  0  0  0
    7.0667   -2.5949    1.4859 C   0  0  0  0  0  0  0  0  0  0  0  0
   10.3070   -2.0931    3.3571 C   0  0  0  0  0  0  0  0  0  0  0  0
   10.9143   -3.1928    3.7032 N   0  0  0  0  0  0  0  0  0  0  0  0
   10.1938   -4.3593    3.7380 N   0  0  0  0  0  0  0  0  0  0  0  0
    9.3926   -4.7057    4.8370 C   0  0  0  0  0  0  0  0  0  0  0  0
    8.7425   -3.6705    5.9858 S   0  0  0  0  0  0  0  0  0  0  0  0
    9.3697   -6.0975    4.9866 N   0  0  0  0  0  0  0  0  0  0  0  0
    8.1469   -6.8058    5.2080 C   0  0  0  0  0  0  0  0  0  0  0  0
    7.0999   -6.7485    4.2638 C   0  0  0  0  0  0  0  0  0  0  0  0
    5.9033   -7.4387    4.5191 C   0  0  0  0  0  0  0  0  0  0  0  0
    5.7611   -8.2171    5.6633 C   0  0  0  0  0  0  0  0  0  0  0  0
    6.8145   -8.3172    6.5681 C   0  0  0  0  0  0  0  0  0  0  0  0
    8.0175   -7.6247    6.3524 C   0  0  0  0  0  0  0  0  0  0  0  0
    9.1117   -7.7562    7.3770 C   0  0  0  0  0  0  0  0  0  0  0  0
    7.2055   -5.9801    2.9782 C   0  0  0  0  0  0  0  0  0  0  0  0
    3.0041   -6.7473   -0.2915 H   0  0  0  0  0  0  0  0  0  0  0  0
    2.4111   -6.0661    1.2333 H   0  0  0  0  0  0  0  0  0  0  0  0
    4.1172   -6.5193    1.0651 H   0  0  0  0  0  0  0  0  0  0  0  0
    2.7232   -4.3023   -0.5306 H   0  0  0  0  0  0  0  0  0  0  0  0
    4.4274   -4.7545   -0.6696 H   0  0  0  0  0  0  0  0  0  0  0  0
    4.7336   -4.1714    1.7706 H   0  0  0  0  0  0  0  0  0  0  0  0
    3.0660   -3.6481    1.8444 H   0  0  0  0  0  0  0  0  0  0  0  0
    3.4462   -1.8810    0.1712 H   0  0  0  0  0  0  0  0  0  0  0  0
    5.0325   -2.4370   -0.1970 H   0  0  0  0  0  0  0  0  0  0  0  0
    4.1623    0.4593    1.7460 H   0  0  0  0  0  0  0  0  0  0  0  0
    4.3173   -0.2825    3.3474 H   0  0  0  0  0  0  0  0  0  0  0  0
    2.0796   -0.9141    1.4021 H   0  0  0  0  0  0  0  0  0  0  0  0
    2.0015    0.0057    2.8966 H   0  0  0  0  0  0  0  0  0  0  0  0
    2.3689   -1.7239    2.9564 H   0  0  0  0  0  0  0  0  0  0  0  0
    6.3137    0.1424    3.3326 H   0  0  0  0  0  0  0  0  0  0  0  0
    8.6011   -0.1558    4.0430 H   0  0  0  0  0  0  0  0  0  0  0  0
    8.9831   -3.5783    1.4723 H   0  0  0  0  0  0  0  0  0  0  0  0
    6.6961   -3.3164    0.7649 H   0  0  0  0  0  0  0  0  0  0  0  0
   10.8882   -1.1612    3.4671 H   0  0  0  0  0  0  0  0  0  0  0  0
   10.7294   -5.1580    3.4105 H   0  0  0  0  0  0  0  0  0  0  0  0
   10.0638   -6.3369    5.6846 H   0  0  0  0  0  0  0  0  0  0  0  0
    5.0761   -7.3790    3.8138 H   0  0  0  0  0  0  0  0  0  0  0  0
    4.8340   -8.7558    5.8427 H   0  0  0  0  0  0  0  0  0  0  0  0
    6.6853   -8.9336    7.4555 H   0  0  0  0  0  0  0  0  0  0  0  0
    8.8156   -8.4039    8.2088 H   0  0  0  0  0  0  0  0  0  0  0  0
    9.3574   -6.7761    7.7985 H   0  0  0  0  0  0  0  0  0  0  0  0
   10.0034   -8.1961    6.9191 H   0  0  0  0  0  0  0  0  0  0  0  0
    8.2077   -6.0667    2.5468 H   0  0  0  0  0  0  0  0  0  0  0  0
    6.9607   -4.9322    3.1588 H   0  0  0  0  0  0  0  0  0  0  0  0
    6.5137   -6.3721    2.2241 H   0  0  0  0  0  0  0  0  0  0  0  0
  1  2  1  0  0  0  0
  1 28  1  0  0  0  0
  1 29  1  0  0  0  0
  1 30  1  0  0  0  0
  2  3  1  0  0  0  0
  2 31  1  0  0  0  0
  2 32  1  0  0  0  0
  3  4  1  0  0  0  0
  3 33  1  0  0  0  0
  3 34  1  0  0  0  0
  4  5  1  0  0  0  0
  4 35  1  0  0  0  0
  4 36  1  0  0  0  0
  5  6  1  0  0  0  0
  5  8  1  0  0  0  0
  6  7  1  0  0  0  0
  6 37  1  0  0  0  0
  6 38  1  0  0  0  0
  7 39  1  0  0  0  0
  7 40  1  0  0  0  0
  7 41  1  0  0  0  0
  8  9  2  0  0  0  0
  8 13  1  0  0  0  0
  9 10  1  0  0  0  0
  9 42  1  0  0  0  0
 10 11  2  0  0  0  0
 10 43  1  0  0  0  0
 11 12  1  0  0  0  0
 11 14  1  0  0  0  0
 12 13  2  0  0  0  0
 12 44  1  0  0  0  0
 13 45  1  0  0  0  0
 14 15  2  0  0  0  0
 14 46  1  0  0  0  0
 15 16  1  0  0  0  0
 16 17  1  0  0  0  0
 16 47  1  0  0  0  0
 17 18  2  0  0  0  0
 17 19  1  0  0  0  0
 19 20  1  0  0  0  0
 19 48  1  0  0  0  0
 20 21  2  0  0  0  0
 20 25  1  0  0  0  0
 21 22  1  0  0  0  0
 21 27  1  0  0  0  0
 22 23  2  0  0  0  0
 22 49  1  0  0  0  0
 23 24  1  0  0  0  0
 23 50  1  0  0  0  0
 24 25  2  0  0  0  0
 24 51  1  0  0  0  0
 25 26  1  0  0  0  0
 26 52  1  0  0  0  0
 26 53  1  0  0  0  0
 26 54  1  0  0  0  0
 27 55  1  0  0  0  0
 27 56  1  0  0  0  0
 27 57  1  0  0  0  0
M  END
