
 OpenBabel10072619423D

 75 75  0  0  0  0  0  0  0  0999 V2000
    0.8297   -0.0156    0.0971 C   0  0  0  0  0  0  0  0  0  0  0  0
    2.3486   -0.0377    0.0371 C   0  0  0  0  0  0  0  0  0  0  0  0
    2.8557   -0.3485   -1.3708 C   0  0  0  0  0  0  0  0  0  0  0  0
    4.3853   -0.3676   -1.4163 C   0  0  0  0  0  0  0  0  0  0  0  0
    4.8952   -0.6781   -2.8246 C   0  0  0  0  0  0  0  0  0  0  0  0
    6.4237   -0.6981   -2.8778 C   0  0  0  0  0  0  0  0  0  0  0  0
    6.9259   -1.0084   -4.2904 C   0  0  0  0  0  0  0  0  0  0  0  0
    8.4540   -1.0266   -4.3418 C   0  0  0  0  0  0  0  0  0  0  0  0
    8.9714   -1.3350   -5.7486 C   0  0  0  0  0  0  0  0  0  0  0  0
   10.4998   -1.3509   -5.7739 C   0  0  0  0  0  0  0  0  0  0  0  0
   11.0451   -1.6656   -7.1679 C   0  0  0  0  0  0  0  0  0  0  0  0
   12.5733   -1.6913   -7.1506 C   0  0  0  0  0  0  0  0  0  0  0  0
   13.1605   -2.0079   -8.5261 C   0  0  0  0  0  0  0  0  0  0  0  0
   14.6880   -2.0544   -8.4558 C   0  0  0  0  0  0  0  0  0  0  0  0
   15.3147   -2.3050   -9.8271 C   0  0  0  0  0  0  0  0  0  0  0  0
   16.8388   -2.3941   -9.7226 C   0  0  0  0  0  0  0  0  0  0  0  0
   17.4907   -2.4933  -11.1007 C   0  0  0  0  0  0  0  0  0  0  0  0
   19.0028   -2.6603  -10.9893 C   0  0  0  0  0  0  0  0  0  0  0  0
   19.6297   -2.5986  -12.2963 N   0  0  0  0  0  0  0  0  0  0  0  0
   20.8834   -3.0334  -12.6344 C   0  0  0  0  0  0  0  0  0  0  0  0
   21.8690   -4.0406  -11.7484 S   0  0  0  0  0  0  0  0  0  0  0  0
   21.3109   -2.5550  -13.8561 N   0  0  0  0  0  0  0  0  0  0  0  0
   20.5466   -1.6803  -14.5776 N   0  0  0  0  0  0  0  0  0  0  0  0
   21.0707   -1.2979  -15.6995 C   0  0  0  0  0  0  0  0  0  0  0  0
   20.3743   -0.3581  -16.6018 C   0  0  0  0  0  0  0  0  0  0  0  0
   19.1404    0.2020  -16.2461 C   0  0  0  0  0  0  0  0  0  0  0  0
   18.5021    1.0848  -17.1199 C   0  0  0  0  0  0  0  0  0  0  0  0
   19.0991    1.3978  -18.3364 C   0  0  0  0  0  0  0  0  0  0  0  0
   20.3244    0.8450  -18.6985 C   0  0  0  0  0  0  0  0  0  0  0  0
   20.9692   -0.0369  -17.8278 C   0  0  0  0  0  0  0  0  0  0  0  0
   18.4878    2.2468  -19.1723 F   0  0  0  0  0  0  0  0  0  0  0  0
    0.4957    0.2089    1.1150 H   0  0  0  0  0  0  0  0  0  0  0  0
    0.4103   -0.9846   -0.1913 H   0  0  0  0  0  0  0  0  0  0  0  0
    0.4205    0.7493   -0.5704 H   0  0  0  0  0  0  0  0  0  0  0  0
    2.7242   -0.7893    0.7411 H   0  0  0  0  0  0  0  0  0  0  0  0
    2.7344    0.9348    0.3641 H   0  0  0  0  0  0  0  0  0  0  0  0
    2.4764    0.4034   -2.0736 H   0  0  0  0  0  0  0  0  0  0  0  0
    2.4661   -1.3207   -1.6967 H   0  0  0  0  0  0  0  0  0  0  0  0
    4.7646   -1.1196   -0.7137 H   0  0  0  0  0  0  0  0  0  0  0  0
    4.7748    0.6046   -1.0904 H   0  0  0  0  0  0  0  0  0  0  0  0
    4.5149    0.0742   -3.5261 H   0  0  0  0  0  0  0  0  0  0  0  0
    4.5055   -1.6505   -3.1493 H   0  0  0  0  0  0  0  0  0  0  0  0
    6.8069   -1.4509   -2.1780 H   0  0  0  0  0  0  0  0  0  0  0  0
    6.8164    0.2734   -2.5534 H   0  0  0  0  0  0  0  0  0  0  0  0
    6.5428   -0.2559   -4.9902 H   0  0  0  0  0  0  0  0  0  0  0  0
    6.5348   -1.9806   -4.6140 H   0  0  0  0  0  0  0  0  0  0  0  0
    8.8335   -1.7787   -3.6392 H   0  0  0  0  0  0  0  0  0  0  0  0
    8.8418   -0.0544   -4.0140 H   0  0  0  0  0  0  0  0  0  0  0  0
    8.5980   -0.5820   -6.4530 H   0  0  0  0  0  0  0  0  0  0  0  0
    8.5869   -2.3076   -6.0783 H   0  0  0  0  0  0  0  0  0  0  0  0
   10.8685   -2.0984   -5.0608 H   0  0  0  0  0  0  0  0  0  0  0  0
   10.8810   -0.3767   -5.4436 H   0  0  0  0  0  0  0  0  0  0  0  0
   10.6943   -0.9115   -7.8824 H   0  0  0  0  0  0  0  0  0  0  0  0
   10.6624   -2.6365   -7.5046 H   0  0  0  0  0  0  0  0  0  0  0  0
   12.9167   -2.4396   -6.4256 H   0  0  0  0  0  0  0  0  0  0  0  0
   12.9503   -0.7186   -6.8113 H   0  0  0  0  0  0  0  0  0  0  0  0
   12.8444   -1.2450   -9.2477 H   0  0  0  0  0  0  0  0  0  0  0  0
   12.7773   -2.9718   -8.8820 H   0  0  0  0  0  0  0  0  0  0  0  0
   14.9977   -2.8433   -7.7594 H   0  0  0  0  0  0  0  0  0  0  0  0
   15.0637   -1.1052   -8.0537 H   0  0  0  0  0  0  0  0  0  0  0  0
   15.0328   -1.4946  -10.5100 H   0  0  0  0  0  0  0  0  0  0  0  0
   14.9224   -3.2377  -10.2504 H   0  0  0  0  0  0  0  0  0  0  0  0
   17.1098   -3.2703   -9.1210 H   0  0  0  0  0  0  0  0  0  0  0  0
   17.2268   -1.5108   -9.2000 H   0  0  0  0  0  0  0  0  0  0  0  0
   17.2570   -1.5924  -11.6820 H   0  0  0  0  0  0  0  0  0  0  0  0
   17.0713   -3.3422  -11.6545 H   0  0  0  0  0  0  0  0  0  0  0  0
   19.2444   -3.6118  -10.5059 H   0  0  0  0  0  0  0  0  0  0  0  0
   19.4410   -1.8558  -10.3885 H   0  0  0  0  0  0  0  0  0  0  0  0
   19.3164   -1.8900  -12.9540 H   0  0  0  0  0  0  0  0  0  0  0  0
   22.2326   -2.8321  -14.1802 H   0  0  0  0  0  0  0  0  0  0  0  0
   22.0595   -1.6623  -16.0325 H   0  0  0  0  0  0  0  0  0  0  0  0
   18.6754   -0.0392  -15.2931 H   0  0  0  0  0  0  0  0  0  0  0  0
   17.5470    1.5308  -16.8589 H   0  0  0  0  0  0  0  0  0  0  0  0
   20.7678    1.1067  -19.6543 H   0  0  0  0  0  0  0  0  0  0  0  0
   21.9274   -0.4622  -18.1152 H   0  0  0  0  0  0  0  0  0  0  0  0
  1  2  1  0  0  0  0
  1 32  1  0  0  0  0
  1 33  1  0  0  0  0
  1 34  1  0  0  0  0
  2  3  1  0  0  0  0
  2 35  1  0  0  0  0
  2 36  1  0  0  0  0
  3  4  1  0  0  0  0
  3 37  1  0  0  0  0
  3 38  1  0  0  0  0
  4  5  1  0  0  0  0
  4 39  1  0  0  0  0
  4 40  1  0  0  0  0
  5  6  1  0  0  0  0
  5 41  1  0  0  0  0
  5 42  1  0  0  0  0
  6  7  1  0  0  0  0
  6 43  1  0  0  0  0
  6 44  1  0  0  0  0
  7  8  1  0  0  0  0
  7 45  1  0  0  0  0
  7 46  1  0  0  0  0
  8  9  1  0  0  0  0
  8 47  1  0  0  0  0
  8 48  1  0  0  0  0
  9 10  1  0  0  0  0
  9 49  1  0  0  0  0
  9 50  1  0  0  0  0
 10 11  1  0  0  0  0
 10 51  1  0  0  0  0
 10 52  1  0  0  0  0
 11 12  1  0  0  0  0
 11 53  1  0  0  0  0
 11 54  1  0  0  0  0
 12 13  1  0  0  0  0
 12 55  1  0  0  0  0
 12 56  1  0  0  0  0
 13 14  1  0  0  0  0
 13 57  1  0  0  0  0
 13 58  1  0  0  0  0
 14 15  1  0  0  0  0
 14 59  1  0  0  0  0
 14 60  1  0  0  0  0
 15 16  1  0  0  0  0
 15 61  1  0  0  0  0
 15 62  1  0  0  0  0
 16 17  1  0  0  0  0
 16 63  1  0  0  0  0
 16 64  1  0  0  0  0
 17 18  1  0  0  0  0
 17 65  1  0  0  0  0
 17 66  1  0  0  0  0
 18 19  1  0  0  0  0
 18 67  1  0  0  0  0
 18 68  1  0  0  0  0
 19 20  1  0  0  0  0
 19 69  1  0  0  0  0
 20 21  2  0  0  0  0
 20 22  1  0  0  0  0
 22 23  1  0  0  0  0
 22 70  1  0  0  0  0
 23 24  2  3  0  0  0
 24 25  1  0  0  0  0
 24 71  1  0  0  0  0
 25 26  2  0  0  0  0
 25 30  1  0  0  0  0
 26 27  1  0  0  0  0
 26 72  1  0  0  0  0
 27 28  2  0  0  0  0
 27 73  1  0  0  0  0
 28 29  1  0  0  0  0
 28 31  1  0  0  0  0
 29 30  2  0  0  0  0
 29 74  1  0  0  0  0
 30 75  1  0  0  0  0
M  END
