
 OpenBabel10072620103D

 83 90  0  0  1  0  0  0  0  0999 V2000
    5.5600   -0.8690    0.9009 C   0  0  0  0  0  0  0  0  0  0  0  0
    6.7119   -0.2690    1.4194 C   0  0  0  0  0  0  0  0  0  0  0  0
    6.6043    0.6128    2.4900 C   0  0  0  0  0  0  0  0  0  0  0  0
    5.3673    0.8928    3.0542 C   0  0  0  0  0  0  0  0  0  0  0  0
    4.2196    0.2912    2.5392 C   0  0  0  0  0  0  0  0  0  0  0  0
    4.2959   -0.5912    1.4479 C   0  0  0  0  0  0  0  0  0  0  0  0
    3.0450   -1.2432    0.8724 C   0  0  2  0  0  0  0  0  0  0  0  0
    2.0544   -0.2318    0.2231 C   0  0  2  0  0  0  0  0  0  0  0  0
    0.8863   -0.3324    1.1607 C   0  0  0  0  0  0  0  0  0  0  0  0
   -0.3166    0.3907    1.2303 C   0  0  0  0  0  0  0  0  0  0  0  0
   -1.1840    0.0638    2.3005 C   0  0  0  0  0  0  0  0  0  0  0  0
   -0.8850   -0.9673    3.1985 C   0  0  0  0  0  0  0  0  0  0  0  0
    0.2934   -1.6845    3.0997 C   0  0  0  0  0  0  0  0  0  0  0  0
    1.1626   -1.3373    2.0883 C   0  0  0  0  0  0  0  0  0  0  0  0
    2.3702   -1.9634    1.9304 O   0  0  0  0  0  0  0  0  0  0  0  0
   -1.7552   -1.3067    4.1937 O   0  0  0  0  0  0  0  0  0  0  0  0
   -0.7039    1.4502    0.1987 C   0  0  2  0  0  0  0  0  0  0  0  0
   -0.3016    2.9153    0.5761 C   0  0  2  0  0  0  0  0  0  0  0  0
   -1.4763    3.5616    1.1532 O   0  0  0  0  0  0  0  0  0  0  0  0
   -2.5335    2.8730    0.6208 C   0  0  0  0  0  0  0  0  0  0  0  0
   -2.1814    1.6580    0.0567 C   0  0  0  0  0  0  0  0  0  0  0  0
   -3.1491    0.8122   -0.4636 C   0  0  0  0  0  0  0  0  0  0  0  0
   -4.4857    1.2349   -0.4339 C   0  0  0  0  0  0  0  0  0  0  0  0
   -4.8233    2.4867    0.1162 C   0  0  0  0  0  0  0  0  0  0  0  0
   -3.8399    3.3154    0.6598 C   0  0  0  0  0  0  0  0  0  0  0  0
   -5.5390    0.3588   -0.9509 C   0  0  0  0  0  0  0  0  0  0  0  0
   -6.1862    0.4792   -2.1204 C   0  0  0  0  0  0  0  0  0  0  0  0
   -5.9585    1.4529   -3.2024 C   0  0  0  0  0  0  0  0  0  0  0  0
   -4.6738    1.8176   -3.6289 C   0  0  0  0  0  0  0  0  0  0  0  0
   -4.5135    2.6957   -4.7010 C   0  0  0  0  0  0  0  0  0  0  0  0
   -5.6095    3.1931   -5.3926 C   0  0  0  0  0  0  0  0  0  0  0  0
   -6.8818    2.8093   -4.9883 C   0  0  0  0  0  0  0  0  0  0  0  0
   -7.0645    1.9568   -3.9002 C   0  0  0  0  0  0  0  0  0  0  0  0
   -7.9968    3.2385   -5.6494 O   0  0  0  0  0  0  0  0  0  0  0  0
   -3.2715    3.0834   -5.1149 O   0  0  0  0  0  0  0  0  0  0  0  0
    0.2215    3.7615   -0.5957 C   0  0  0  0  0  0  0  0  0  0  0  0
   -0.3155    5.0236   -0.9123 C   0  0  0  0  0  0  0  0  0  0  0  0
    0.1848    5.7794   -1.9797 C   0  0  0  0  0  0  0  0  0  0  0  0
    1.2362    5.2812   -2.7377 C   0  0  0  0  0  0  0  0  0  0  0  0
    1.7962    4.0501   -2.4386 C   0  0  0  0  0  0  0  0  0  0  0  0
    1.2988    3.3056   -1.3686 C   0  0  0  0  0  0  0  0  0  0  0  0
    1.7620    5.9770   -3.7843 O   0  0  0  0  0  0  0  0  0  0  0  0
    1.8129   -0.5567   -1.2416 C   0  0  0  0  0  0  0  0  0  0  0  0
    0.7686   -1.3866   -1.6780 C   0  0  0  0  0  0  0  0  0  0  0  0
    0.5684   -1.6103   -3.0396 C   0  0  0  0  0  0  0  0  0  0  0  0
    1.4010   -1.0365   -3.9897 C   0  0  0  0  0  0  0  0  0  0  0  0
    2.4566   -0.2452   -3.5609 C   0  0  0  0  0  0  0  0  0  0  0  0
    2.6830   -0.0146   -2.2054 C   0  0  0  0  0  0  0  0  0  0  0  0
    3.2616    0.2979   -4.5169 O   0  0  0  0  0  0  0  0  0  0  0  0
   -0.4755   -2.4070   -3.4102 O   0  0  0  0  0  0  0  0  0  0  0  0
    7.6983    1.2245    3.0243 O   0  0  0  0  0  0  0  0  0  0  0  0
    5.6603   -1.5670    0.0716 H   0  0  0  0  0  0  0  0  0  0  0  0
    7.6783   -0.5023    0.9824 H   0  0  0  0  0  0  0  0  0  0  0  0
    5.2944    1.5739    3.8979 H   0  0  0  0  0  0  0  0  0  0  0  0
    3.2621    0.5095    3.0079 H   0  0  0  0  0  0  0  0  0  0  0  0
    3.3569   -2.0056    0.1464 H   0  0  0  0  0  0  0  0  0  0  0  0
    2.4519    0.7883    0.2875 H   0  0  0  0  0  0  0  0  0  0  0  0
   -2.1219    0.6007    2.4286 H   0  0  0  0  0  0  0  0  0  0  0  0
    0.5274   -2.4809    3.7967 H   0  0  0  0  0  0  0  0  0  0  0  0
   -2.5571   -0.7674    4.1040 H   0  0  0  0  0  0  0  0  0  0  0  0
   -0.3102    1.1637   -0.7791 H   0  0  0  0  0  0  0  0  0  0  0  0
    0.4796    2.9246    1.3474 H   0  0  0  0  0  0  0  0  0  0  0  0
   -2.8802   -0.1593   -0.8678 H   0  0  0  0  0  0  0  0  0  0  0  0
   -5.8616    2.8136    0.1332 H   0  0  0  0  0  0  0  0  0  0  0  0
   -4.0919    4.2736    1.0977 H   0  0  0  0  0  0  0  0  0  0  0  0
   -5.8308   -0.4381   -0.2690 H   0  0  0  0  0  0  0  0  0  0  0  0
   -6.9924   -0.2277   -2.3210 H   0  0  0  0  0  0  0  0  0  0  0  0
   -3.7974    1.4065   -3.1408 H   0  0  0  0  0  0  0  0  0  0  0  0
   -5.4497    3.8607   -6.2330 H   0  0  0  0  0  0  0  0  0  0  0  0
   -8.0766    1.6858   -3.6089 H   0  0  0  0  0  0  0  0  0  0  0  0
   -7.7163    3.7528   -6.4234 H   0  0  0  0  0  0  0  0  0  0  0  0
   -2.6145    2.7295   -4.4918 H   0  0  0  0  0  0  0  0  0  0  0  0
   -1.1346    5.4413   -0.3292 H   0  0  0  0  0  0  0  0  0  0  0  0
   -0.2538    6.7493   -2.1932 H   0  0  0  0  0  0  0  0  0  0  0  0
    2.6228    3.6714   -3.0323 H   0  0  0  0  0  0  0  0  0  0  0  0
    1.7706    2.3597   -1.1460 H   0  0  0  0  0  0  0  0  0  0  0  0
    1.2436    6.7889   -3.9069 H   0  0  0  0  0  0  0  0  0  0  0  0
    0.1031   -1.8641   -0.9617 H   0  0  0  0  0  0  0  0  0  0  0  0
    1.2513   -1.1916   -5.0536 H   0  0  0  0  0  0  0  0  0  0  0  0
    3.5224    0.6018   -1.8923 H   0  0  0  0  0  0  0  0  0  0  0  0
    3.9525    0.8279   -4.0882 H   0  0  0  0  0  0  0  0  0  0  0  0
   -0.4049   -2.5822   -4.3631 H   0  0  0  0  0  0  0  0  0  0  0  0
    8.4835    0.9496    2.5247 H   0  0  0  0  0  0  0  0  0  0  0  0
  1  2  2  0  0  0  0
  1  6  1  0  0  0  0
  1 52  1  0  0  0  0
  2  3  1  0  0  0  0
  2 53  1  0  0  0  0
  3  4  2  0  0  0  0
  3 51  1  0  0  0  0
  4  5  1  0  0  0  0
  4 54  1  0  0  0  0
  5  6  2  0  0  0  0
  5 55  1  0  0  0  0
  6  7  1  0  0  0  0
  7  8  1  0  0  0  0
  7 15  1  0  0  0  0
  7 56  1  6  0  0  0
  8  9  1  0  0  0  0
  8 43  1  0  0  0  0
  8 57  1  1  0  0  0
  9 10  2  0  0  0  0
  9 14  1  0  0  0  0
 10 11  1  0  0  0  0
 10 17  1  0  0  0  0
 11 12  2  0  0  0  0
 11 58  1  0  0  0  0
 12 13  1  0  0  0  0
 12 16  1  0  0  0  0
 13 14  2  0  0  0  0
 13 59  1  0  0  0  0
 14 15  1  0  0  0  0
 16 60  1  0  0  0  0
 17 18  1  0  0  0  0
 17 21  1  0  0  0  0
 17 61  1  6  0  0  0
 18 19  1  0  0  0  0
 18 36  1  0  0  0  0
 18 62  1  1  0  0  0
 19 20  1  0  0  0  0
 20 21  2  0  0  0  0
 20 25  1  0  0  0  0
 21 22  1  0  0  0  0
 22 23  2  0  0  0  0
 22 63  1  0  0  0  0
 23 24  1  0  0  0  0
 23 26  1  0  0  0  0
 24 25  2  0  0  0  0
 24 64  1  0  0  0  0
 25 65  1  0  0  0  0
 26 27  2  0  0  0  0
 26 66  1  0  0  0  0
 27 28  1  0  0  0  0
 27 67  1  0  0  0  0
 28 29  2  0  0  0  0
 28 33  1  0  0  0  0
 29 30  1  0  0  0  0
 29 68  1  0  0  0  0
 30 31  2  0  0  0  0
 30 35  1  0  0  0  0
 31 32  1  0  0  0  0
 31 69  1  0  0  0  0
 32 33  2  0  0  0  0
 32 34  1  0  0  0  0
 33 70  1  0  0  0  0
 34 71  1  0  0  0  0
 35 72  1  0  0  0  0
 36 37  2  0  0  0  0
 36 41  1  0  0  0  0
 37 38  1  0  0  0  0
 37 73  1  0  0  0  0
 38 39  2  0  0  0  0
 38 74  1  0  0  0  0
 39 40  1  0  0  0  0
 39 42  1  0  0  0  0
 40 41  2  0  0  0  0
 40 75  1  0  0  0  0
 41 76  1  0  0  0  0
 42 77  1  0  0  0  0
 43 44  2  0  0  0  0
 43 48  1  0  0  0  0
 44 45  1  0  0  0  0
 44 78  1  0  0  0  0
 45 46  2  0  0  0  0
 45 50  1  0  0  0  0
 46 47  1  0  0  0  0
 46 79  1  0  0  0  0
 47 48  2  0  0  0  0
 47 49  1  0  0  0  0
 48 80  1  0  0  0  0
 49 81  1  0  0  0  0
 50 82  1  0  0  0  0
 51 83  1  0  0  0  0
M  END
