
 OpenBabel10072620033D

 64 65  0  0  0  0  0  0  0  0999 V2000
    3.1151    3.9600    2.3542 C   0  0  0  0  0  0  0  0  0  0  0  0
    1.6898    4.3869    2.5486 C   0  0  0  0  0  0  0  0  0  0  0  0
    1.2316    5.6284    2.0953 C   0  0  0  0  0  0  0  0  0  0  0  0
   -0.0953    6.0195    2.3139 C   0  0  0  0  0  0  0  0  0  0  0  0
   -0.9830    5.1765    2.9959 C   0  0  0  0  0  0  0  0  0  0  0  0
   -0.5252    3.9257    3.4292 C   0  0  0  0  0  0  0  0  0  0  0  0
    0.7980    3.5361    3.2113 C   0  0  0  0  0  0  0  0  0  0  0  0
   -2.4079    5.5878    3.2504 C   0  0  0  0  0  0  0  0  0  0  0  0
   -3.2688    5.2314    2.1477 N   0  0  0  0  0  0  0  0  0  0  0  0
   -4.6125    5.4663    2.2672 C   0  0  0  0  0  0  0  0  0  0  0  0
   -5.1323    6.0214    3.2247 O   0  0  0  0  0  0  0  0  0  0  0  0
   -5.2973    5.0115    1.1667 N   0  0  0  0  0  0  0  0  0  0  0  0
   -6.7051    5.3252    1.0621 C   0  0  0  0  0  0  0  0  0  0  0  0
   -7.3237    4.7896   -0.2254 C   0  0  0  0  0  0  0  0  0  0  0  0
   -8.8518    4.9086   -0.2342 C   0  0  0  0  0  0  0  0  0  0  0  0
   -9.3494    6.3588   -0.1794 C   0  0  0  0  0  0  0  0  0  0  0  0
  -10.8776    6.4679   -0.1480 C   0  0  0  0  0  0  0  0  0  0  0  0
  -11.4709    5.9347    1.1534 C   0  0  0  0  0  0  0  0  0  0  0  0
  -12.8891    6.2063    1.2545 N   0  0  0  0  0  0  0  0  0  0  0  0
  -13.6138    5.6178    2.2614 C   0  0  0  0  0  0  0  0  0  0  0  0
  -13.1881    4.7401    3.0007 O   0  0  0  0  0  0  0  0  0  0  0  0
  -14.8603    6.1696    2.3522 N   0  0  0  0  0  0  0  0  0  0  0  0
  -15.8008    5.7169    3.3525 C   0  0  0  0  0  0  0  0  0  0  0  0
  -16.8869    6.7421    3.5559 C   0  0  0  0  0  0  0  0  0  0  0  0
  -18.2407    6.4058    3.4303 C   0  0  0  0  0  0  0  0  0  0  0  0
  -19.2350    7.3720    3.6260 C   0  0  0  0  0  0  0  0  0  0  0  0
  -18.8912    8.6913    3.9411 C   0  0  0  0  0  0  0  0  0  0  0  0
  -17.5422    9.0216    4.0999 C   0  0  0  0  0  0  0  0  0  0  0  0
  -16.5515    8.0572    3.9101 C   0  0  0  0  0  0  0  0  0  0  0  0
  -19.9499    9.7219    4.1959 C   0  0  0  0  0  0  0  0  0  0  0  0
    3.7005    4.7231    1.8314 H   0  0  0  0  0  0  0  0  0  0  0  0
    3.1580    3.0387    1.7646 H   0  0  0  0  0  0  0  0  0  0  0  0
    3.5875    3.7845    3.3263 H   0  0  0  0  0  0  0  0  0  0  0  0
    1.9069    6.3069    1.5767 H   0  0  0  0  0  0  0  0  0  0  0  0
   -0.4289    6.9928    1.9597 H   0  0  0  0  0  0  0  0  0  0  0  0
   -1.1947    3.2494    3.9561 H   0  0  0  0  0  0  0  0  0  0  0  0
    1.1341    2.5674    3.5733 H   0  0  0  0  0  0  0  0  0  0  0  0
   -2.4802    6.6692    3.4219 H   0  0  0  0  0  0  0  0  0  0  0  0
   -2.7854    5.1021    4.1586 H   0  0  0  0  0  0  0  0  0  0  0  0
   -3.0285    4.3986    1.6307 H   0  0  0  0  0  0  0  0  0  0  0  0
   -4.7554    5.0341    0.3157 H   0  0  0  0  0  0  0  0  0  0  0  0
   -6.7947    6.4153    1.1048 H   0  0  0  0  0  0  0  0  0  0  0  0
   -7.2094    4.9135    1.9445 H   0  0  0  0  0  0  0  0  0  0  0  0
   -7.0554    3.7332   -0.3495 H   0  0  0  0  0  0  0  0  0  0  0  0
   -6.8993    5.3184   -1.0878 H   0  0  0  0  0  0  0  0  0  0  0  0
   -9.2431    4.3369    0.6147 H   0  0  0  0  0  0  0  0  0  0  0  0
   -9.2401    4.4282   -1.1419 H   0  0  0  0  0  0  0  0  0  0  0  0
   -8.9681    6.9037   -1.0531 H   0  0  0  0  0  0  0  0  0  0  0  0
   -8.9520    6.8693    0.7052 H   0  0  0  0  0  0  0  0  0  0  0  0
  -11.3163    5.9405   -1.0030 H   0  0  0  0  0  0  0  0  0  0  0  0
  -11.1502    7.5232   -0.2674 H   0  0  0  0  0  0  0  0  0  0  0  0
  -10.9879    6.3966    2.0216 H   0  0  0  0  0  0  0  0  0  0  0  0
  -11.3216    4.8552    1.2314 H   0  0  0  0  0  0  0  0  0  0  0  0
  -13.1798    7.1511    1.0559 H   0  0  0  0  0  0  0  0  0  0  0  0
  -15.2553    6.4859    1.4818 H   0  0  0  0  0  0  0  0  0  0  0  0
  -15.2821    5.5316    4.2996 H   0  0  0  0  0  0  0  0  0  0  0  0
  -16.2133    4.7620    3.0076 H   0  0  0  0  0  0  0  0  0  0  0  0
  -18.5367    5.3891    3.1809 H   0  0  0  0  0  0  0  0  0  0  0  0
  -20.2819    7.0877    3.5329 H   0  0  0  0  0  0  0  0  0  0  0  0
  -17.2534   10.0324    4.3786 H   0  0  0  0  0  0  0  0  0  0  0  0
  -15.5077    8.3366    4.0369 H   0  0  0  0  0  0  0  0  0  0  0  0
  -20.8634    9.5011    3.6351 H   0  0  0  0  0  0  0  0  0  0  0  0
  -19.6085   10.7135    3.8815 H   0  0  0  0  0  0  0  0  0  0  0  0
  -20.1878    9.7509    5.2633 H   0  0  0  0  0  0  0  0  0  0  0  0
  1  2  1  0  0  0  0
  1 31  1  0  0  0  0
  1 32  1  0  0  0  0
  1 33  1  0  0  0  0
  2  3  2  0  0  0  0
  2  7  1  0  0  0  0
  3  4  1  0  0  0  0
  3 34  1  0  0  0  0
  4  5  2  0  0  0  0
  4 35  1  0  0  0  0
  5  6  1  0  0  0  0
  5  8  1  0  0  0  0
  6  7  2  0  0  0  0
  6 36  1  0  0  0  0
  7 37  1  0  0  0  0
  8  9  1  0  0  0  0
  8 38  1  0  0  0  0
  8 39  1  0  0  0  0
  9 10  1  0  0  0  0
  9 40  1  0  0  0  0
 10 11  2  0  0  0  0
 10 12  1  0  0  0  0
 12 13  1  0  0  0  0
 12 41  1  0  0  0  0
 13 14  1  0  0  0  0
 13 42  1  0  0  0  0
 13 43  1  0  0  0  0
 14 15  1  0  0  0  0
 14 44  1  0  0  0  0
 14 45  1  0  0  0  0
 15 16  1  0  0  0  0
 15 46  1  0  0  0  0
 15 47  1  0  0  0  0
 16 17  1  0  0  0  0
 16 48  1  0  0  0  0
 16 49  1  0  0  0  0
 17 18  1  0  0  0  0
 17 50  1  0  0  0  0
 17 51  1  0  0  0  0
 18 19  1  0  0  0  0
 18 52  1  0  0  0  0
 18 53  1  0  0  0  0
 19 20  1  0  0  0  0
 19 54  1  0  0  0  0
 20 21  2  0  0  0  0
 20 22  1  0  0  0  0
 22 23  1  0  0  0  0
 22 55  1  0  0  0  0
 23 24  1  0  0  0  0
 23 56  1  0  0  0  0
 23 57  1  0  0  0  0
 24 25  2  0  0  0  0
 24 29  1  0  0  0  0
 25 26  1  0  0  0  0
 25 58  1  0  0  0  0
 26 27  2  0  0  0  0
 26 59  1  0  0  0  0
 27 28  1  0  0  0  0
 27 30  1  0  0  0  0
 28 29  2  0  0  0  0
 28 60  1  0  0  0  0
 29 61  1  0  0  0  0
 30 62  1  0  0  0  0
 30 63  1  0  0  0  0
 30 64  1  0  0  0  0
M  END
