
 OpenBabel10072619523D

 51 53  0  0  0  0  0  0  0  0999 V2000
    0.7575   -1.2820    1.8899 C   0  0  0  0  0  0  0  0  0  0  0  0
    2.0651   -1.9666    1.5268 C   0  0  0  0  0  0  0  0  0  0  0  0
    2.9802   -1.0037    1.0251 O   0  0  0  0  0  0  0  0  0  0  0  0
    4.3763   -1.1885    1.2072 C   0  0  0  0  0  0  0  0  0  0  0  0
    5.1665   -0.1263    1.3093 C   0  0  0  0  0  0  0  0  0  0  0  0
    6.4926   -0.2701    1.6390 C   0  0  0  0  0  0  0  0  0  0  0  0
    7.0516   -1.5098    1.7800 C   0  0  0  0  0  0  0  0  0  0  0  0
    6.2212   -2.5361    1.7450 C   0  0  0  0  0  0  0  0  0  0  0  0
    4.8880   -2.4739    1.2750 C   0  0  0  0  0  0  0  0  0  0  0  0
    6.7331   -3.8774    2.2442 C   0  0  0  0  0  0  0  0  0  0  0  0
    6.5914   -4.2146    3.5545 C   0  0  0  0  0  0  0  0  0  0  0  0
    5.9210   -3.2501    4.5193 C   0  0  0  0  0  0  0  0  0  0  0  0
    5.3649   -2.4500    5.3197 N   0  0  0  0  0  0  0  0  0  0  0  0
    7.1033   -5.5559    4.0538 C   0  0  0  0  0  0  0  0  0  0  0  0
    7.3089   -6.5034    3.2321 O   0  0  0  0  0  0  0  0  0  0  0  0
    7.3607   -5.7571    5.4870 N   0  0  0  0  0  0  0  0  0  0  0  0
    7.8558   -7.0543    5.9699 C   0  0  0  0  0  0  0  0  0  0  0  0
    6.8634   -7.6378    6.9624 C   0  0  0  0  0  0  0  0  0  0  0  0
    5.8465   -8.4383    6.6132 C   0  0  0  0  0  0  0  0  0  0  0  0
    5.1752   -8.7360    7.8248 C   0  0  0  0  0  0  0  0  0  0  0  0
    5.8398   -8.0936    8.8178 C   0  0  0  0  0  0  0  0  0  0  0  0
    6.9107   -7.4074    8.2980 O   0  0  0  0  0  0  0  0  0  0  0  0
    4.6362    1.1701    1.0755 O   0  0  0  0  0  0  0  0  0  0  0  0
    5.4704    2.1955    0.5569 C   0  0  0  0  0  0  0  0  0  0  0  0
    6.4417    1.8989   -0.2072 O   0  0  0  0  0  0  0  0  0  0  0  0
    5.2018    3.6480    0.9156 C   0  0  0  0  0  0  0  0  0  0  0  0
    5.5145    4.6171    0.0634 C   0  0  0  0  0  0  0  0  0  0  0  0
    5.1396    5.9153    0.3124 C   0  0  0  0  0  0  0  0  0  0  0  0
    4.5183    6.2559    1.4817 C   0  0  0  0  0  0  0  0  0  0  0  0
    4.1584    5.2577    2.2680 C   0  0  0  0  0  0  0  0  0  0  0  0
    4.6305    3.9294    2.1456 C   0  0  0  0  0  0  0  0  0  0  0  0
    4.4888    2.6077    3.5860 Br  0  0  0  0  0  0  0  0  0  0  0  0
    0.0680   -2.0076    2.2679 H   0  0  0  0  0  0  0  0  0  0  0  0
    0.3445   -0.8171    1.0192 H   0  0  0  0  0  0  0  0  0  0  0  0
    0.9397   -0.5393    2.6384 H   0  0  0  0  0  0  0  0  0  0  0  0
    1.8830   -2.7094    0.7784 H   0  0  0  0  0  0  0  0  0  0  0  0
    2.4782   -2.4315    2.3975 H   0  0  0  0  0  0  0  0  0  0  0  0
    7.0750    0.5697    1.7823 H   0  0  0  0  0  0  0  0  0  0  0  0
    8.0679   -1.6368    1.9070 H   0  0  0  0  0  0  0  0  0  0  0  0
    4.3461   -3.3103    1.0071 H   0  0  0  0  0  0  0  0  0  0  0  0
    7.1883   -4.5322    1.5892 H   0  0  0  0  0  0  0  0  0  0  0  0
    7.2015   -5.0231    6.1235 H   0  0  0  0  0  0  0  0  0  0  0  0
    8.8024   -6.9185    6.4499 H   0  0  0  0  0  0  0  0  0  0  0  0
    7.9681   -7.7235    5.1426 H   0  0  0  0  0  0  0  0  0  0  0  0
    5.6045   -8.7672    5.6654 H   0  0  0  0  0  0  0  0  0  0  0  0
    4.3380   -9.3298    7.9319 H   0  0  0  0  0  0  0  0  0  0  0  0
    5.5795   -8.1168    9.8161 H   0  0  0  0  0  0  0  0  0  0  0  0
    6.0439    4.3932   -0.7937 H   0  0  0  0  0  0  0  0  0  0  0  0
    5.3297    6.6438   -0.3934 H   0  0  0  0  0  0  0  0  0  0  0  0
    4.3402    7.2400    1.7363 H   0  0  0  0  0  0  0  0  0  0  0  0
    3.4862    5.4606    3.0242 H   0  0  0  0  0  0  0  0  0  0  0  0
  1  2  1  0  0  0  0
  1 33  1  0  0  0  0
  1 34  1  0  0  0  0
  1 35  1  0  0  0  0
  2  3  1  0  0  0  0
  2 36  1  0  0  0  0
  2 37  1  0  0  0  0
  3  4  1  0  0  0  0
  4  5  2  0  0  0  0
  4  9  1  0  0  0  0
  5  6  1  0  0  0  0
  5 23  1  0  0  0  0
  6  7  2  0  0  0  0
  6 38  1  0  0  0  0
  7  8  1  0  0  0  0
  7 39  1  0  0  0  0
  8  9  2  0  0  0  0
  8 10  1  0  0  0  0
  9 40  1  0  0  0  0
 10 11  2  0  0  0  0
 10 41  1  0  0  0  0
 11 12  1  0  0  0  0
 11 14  1  0  0  0  0
 12 13  3  0  0  0  0
 14 15  2  0  0  0  0
 14 16  1  0  0  0  0
 16 17  1  0  0  0  0
 16 42  1  0  0  0  0
 17 18  1  0  0  0  0
 17 43  1  0  0  0  0
 17 44  1  0  0  0  0
 18 19  2  0  0  0  0
 18 22  1  0  0  0  0
 19 20  1  0  0  0  0
 19 45  1  0  0  0  0
 20 21  2  0  0  0  0
 20 46  1  0  0  0  0
 21 22  1  0  0  0  0
 21 47  1  0  0  0  0
 23 24  1  0  0  0  0
 24 25  2  0  0  0  0
 24 26  1  0  0  0  0
 26 27  2  0  0  0  0
 26 31  1  0  0  0  0
 27 28  1  0  0  0  0
 27 48  1  0  0  0  0
 28 29  2  0  0  0  0
 28 49  1  0  0  0  0
 29 30  1  0  0  0  0
 29 50  1  0  0  0  0
 30 31  2  0  0  0  0
 30 51  1  0  0  0  0
 31 32  1  0  0  0  0
M  END
