
 OpenBabel10072620093D

 49 49  0  0  1  0  0  0  0  0999 V2000
    1.0850    0.2811   -0.5176 C   0  0  0  0  0  0  0  0  0  0  0  0
    2.4873    0.0306    0.0516 C   0  0  3  0  0  0  0  0  0  0  0  0
    3.4894   -0.4995   -1.0048 C   0  0  0  0  0  0  0  0  0  0  0  0
    3.0001   -1.6828   -1.7397 N   0  0  0  0  0  0  0  0  0  0  0  0
    2.6591   -2.8628   -0.9384 C   0  0  0  0  0  0  0  0  0  0  0  0
    2.7146   -1.6503   -3.1211 C   0  0  0  0  0  0  0  0  0  0  0  0
    3.4592   -1.0243   -4.0488 C   0  0  0  0  0  0  0  0  0  0  0  0
    3.1767   -1.0619   -5.4976 C   0  0  0  0  0  0  0  0  0  0  0  0
    2.0720   -1.0616   -6.0097 O   0  0  0  0  0  0  0  0  0  0  0  0
    4.3712   -1.0965   -6.1409 O   0  0  0  0  0  0  0  0  0  0  0  0
    4.2724   -1.2010   -7.5618 C   0  0  0  0  0  0  0  0  0  0  0  0
    1.5352   -2.4351   -3.6277 C   0  0  0  0  0  0  0  0  0  0  0  0
    1.5974   -3.5933   -4.0130 O   0  0  0  0  0  0  0  0  0  0  0  0
    0.4342   -1.6477   -3.5312 O   0  0  0  0  0  0  0  0  0  0  0  0
   -0.7695   -2.2165   -4.0447 C   0  0  0  0  0  0  0  0  0  0  0  0
    3.0370    1.2762    0.7190 C   0  0  0  0  0  0  0  0  0  0  0  0
    3.7609    1.4563    1.8858 C   0  0  0  0  0  0  0  0  0  0  0  0
    3.9979    2.8501    2.0256 C   0  0  0  0  0  0  0  0  0  0  0  0
    3.4158    3.4988    0.9534 C   0  0  0  0  0  0  0  0  0  0  0  0
    2.8645    2.5236    0.1598 N   0  0  0  0  0  0  0  0  0  0  0  0
    3.3281    4.9005    0.6042 C   0  0  0  0  0  0  0  0  0  0  0  0
    2.7458    5.2754   -0.4121 O   0  0  0  0  0  0  0  0  0  0  0  0
    3.9812    5.8941    1.5249 C   0  0  0  0  0  0  0  0  0  0  0  0
    4.1658    0.4108    2.7709 C   0  0  0  0  0  0  0  0  0  0  0  0
    4.8877    0.5622    3.8886 C   0  0  0  0  0  0  0  0  0  0  0  0
    0.6284   -0.6448   -0.8781 H   0  0  0  0  0  0  0  0  0  0  0  0
    1.0957    0.9909   -1.3516 H   0  0  0  0  0  0  0  0  0  0  0  0
    0.4240    0.6814    0.2595 H   0  0  0  0  0  0  0  0  0  0  0  0
    2.3647   -0.7394    0.8233 H   0  0  0  0  0  0  0  0  0  0  0  0
    4.4355   -0.7616   -0.5126 H   0  0  0  0  0  0  0  0  0  0  0  0
    3.7304    0.3132   -1.7023 H   0  0  0  0  0  0  0  0  0  0  0  0
    3.2351   -2.8893   -0.0070 H   0  0  0  0  0  0  0  0  0  0  0  0
    2.8965   -3.7833   -1.4849 H   0  0  0  0  0  0  0  0  0  0  0  0
    1.5933   -2.8686   -0.6884 H   0  0  0  0  0  0  0  0  0  0  0  0
    4.3719   -0.5123   -3.7693 H   0  0  0  0  0  0  0  0  0  0  0  0
    5.2829   -1.3147   -7.9637 H   0  0  0  0  0  0  0  0  0  0  0  0
    3.8344   -0.2924   -7.9847 H   0  0  0  0  0  0  0  0  0  0  0  0
    3.6911   -2.0822   -7.8491 H   0  0  0  0  0  0  0  0  0  0  0  0
   -1.3565   -2.6139   -3.2129 H   0  0  0  0  0  0  0  0  0  0  0  0
   -0.5948   -2.9984   -4.7898 H   0  0  0  0  0  0  0  0  0  0  0  0
   -1.3465   -1.4196   -4.5216 H   0  0  0  0  0  0  0  0  0  0  0  0
    4.5248    3.3303    2.8370 H   0  0  0  0  0  0  0  0  0  0  0  0
    2.3718    2.7318   -0.7007 H   0  0  0  0  0  0  0  0  0  0  0  0
    5.0605    5.7291    1.5347 H   0  0  0  0  0  0  0  0  0  0  0  0
    3.5741    5.7929    2.5332 H   0  0  0  0  0  0  0  0  0  0  0  0
    3.7836    6.9114    1.1728 H   0  0  0  0  0  0  0  0  0  0  0  0
    3.8582   -0.6032    2.5246 H   0  0  0  0  0  0  0  0  0  0  0  0
    5.2474    1.5281    4.2261 H   0  0  0  0  0  0  0  0  0  0  0  0
    5.1335   -0.3001    4.5011 H   0  0  0  0  0  0  0  0  0  0  0  0
  1  2  1  0  0  0  0
  1 26  1  0  0  0  0
  1 27  1  0  0  0  0
  1 28  1  0  0  0  0
  2  3  1  0  0  0  0
  2 16  1  0  0  0  0
  2 29  1  0  0  0  0
  3  4  1  0  0  0  0
  3 30  1  0  0  0  0
  3 31  1  0  0  0  0
  4  5  1  0  0  0  0
  4  6  1  0  0  0  0
  5 32  1  0  0  0  0
  5 33  1  0  0  0  0
  5 34  1  0  0  0  0
  6  7  2  0  0  0  0
  6 12  1  0  0  0  0
  7  8  1  0  0  0  0
  7 35  1  0  0  0  0
  8  9  2  0  0  0  0
  8 10  1  0  0  0  0
 10 11  1  0  0  0  0
 11 36  1  0  0  0  0
 11 37  1  0  0  0  0
 11 38  1  0  0  0  0
 12 13  2  0  0  0  0
 12 14  1  0  0  0  0
 14 15  1  0  0  0  0
 15 39  1  0  0  0  0
 15 40  1  0  0  0  0
 15 41  1  0  0  0  0
 16 17  2  0  0  0  0
 16 20  1  0  0  0  0
 17 18  1  0  0  0  0
 17 24  1  0  0  0  0
 18 19  2  0  0  0  0
 18 42  1  0  0  0  0
 19 20  1  0  0  0  0
 19 21  1  0  0  0  0
 20 43  1  0  0  0  0
 21 22  2  0  0  0  0
 21 23  1  0  0  0  0
 23 44  1  0  0  0  0
 23 45  1  0  0  0  0
 23 46  1  0  0  0  0
 24 25  2  0  0  0  0
 24 47  1  0  0  0  0
 25 48  1  0  0  0  0
 25 49  1  0  0  0  0
M  END
