
 OpenBabel10072619503D

 34 34  0  0  0  0  0  0  0  0999 V2000
    1.0381   -0.3107    4.5766 C   0  0  0  0  0  0  0  0  0  0  0  0
    2.5186   -0.0092    4.4106 C   0  0  0  0  0  0  0  0  0  0  0  0
    3.1895   -0.9709    3.4291 C   0  0  0  0  0  0  0  0  0  0  0  0
    4.6666   -0.6245    3.2449 C   0  0  0  0  0  0  0  0  0  0  0  0
    5.3046   -1.6557    2.4216 N   0  0  0  0  0  0  0  0  0  0  0  0
    6.9817   -1.6630    2.3090 S   0  0  0  0  0  0  0  0  0  0  0  0
    7.3153   -2.5201    1.1947 O   0  0  0  0  0  0  0  0  0  0  0  0
    7.4442   -0.2959    2.3935 O   0  0  0  0  0  0  0  0  0  0  0  0
    7.4510   -2.5199    3.7912 C   0  0  0  0  0  0  0  0  0  0  0  0
    8.2273   -1.8762    4.7553 C   0  0  0  0  0  0  0  0  0  0  0  0
    8.5830   -2.5834    5.9120 C   0  0  0  0  0  0  0  0  0  0  0  0
    8.1643   -3.9118    6.1327 C   0  0  0  0  0  0  0  0  0  0  0  0
    7.4004   -4.5351    5.1316 C   0  0  0  0  0  0  0  0  0  0  0  0
    7.0440   -3.8460    3.9682 C   0  0  0  0  0  0  0  0  0  0  0  0
    8.5098   -4.6824    7.3781 C   0  0  0  0  0  0  0  0  0  0  0  0
    9.3863   -1.8819    6.9055 N   0  3  0  0  0  0  0  0  0  0  0  0
    8.9653   -0.7831    7.2919 O   0  0  0  0  0  0  0  0  0  0  0  0
   10.4305   -2.4276    7.2847 O   0  5  0  0  0  0  0  0  0  0  0  0
    0.5916    0.3893    5.2896 H   0  0  0  0  0  0  0  0  0  0  0  0
    0.8855   -1.3251    4.9578 H   0  0  0  0  0  0  0  0  0  0  0  0
    0.5047   -0.2125    3.6252 H   0  0  0  0  0  0  0  0  0  0  0  0
    3.0116   -0.0764    5.3883 H   0  0  0  0  0  0  0  0  0  0  0  0
    2.6360    1.0237    4.0625 H   0  0  0  0  0  0  0  0  0  0  0  0
    2.6773   -0.9300    2.4593 H   0  0  0  0  0  0  0  0  0  0  0  0
    3.0897   -2.0016    3.7926 H   0  0  0  0  0  0  0  0  0  0  0  0
    5.1576   -0.5719    4.2222 H   0  0  0  0  0  0  0  0  0  0  0  0
    4.7552    0.3480    2.7488 H   0  0  0  0  0  0  0  0  0  0  0  0
    4.8633   -1.9208    1.5412 H   0  0  0  0  0  0  0  0  0  0  0  0
    8.5485   -0.8459    4.6123 H   0  0  0  0  0  0  0  0  0  0  0  0
    7.0658   -5.5651    5.2523 H   0  0  0  0  0  0  0  0  0  0  0  0
    6.4487   -4.3440    3.2042 H   0  0  0  0  0  0  0  0  0  0  0  0
    8.3281   -4.0744    8.2697 H   0  0  0  0  0  0  0  0  0  0  0  0
    9.5575   -4.9979    7.3569 H   0  0  0  0  0  0  0  0  0  0  0  0
    7.8891   -5.5796    7.4799 H   0  0  0  0  0  0  0  0  0  0  0  0
  1  2  1  0  0  0  0
  1 19  1  0  0  0  0
  1 20  1  0  0  0  0
  1 21  1  0  0  0  0
  2  3  1  0  0  0  0
  2 22  1  0  0  0  0
  2 23  1  0  0  0  0
  3  4  1  0  0  0  0
  3 24  1  0  0  0  0
  3 25  1  0  0  0  0
  4  5  1  0  0  0  0
  4 26  1  0  0  0  0
  4 27  1  0  0  0  0
  5  6  1  0  0  0  0
  5 28  1  0  0  0  0
  6  7  2  0  0  0  0
  6  8  2  0  0  0  0
  6  9  1  0  0  0  0
  9 10  2  0  0  0  0
  9 14  1  0  0  0  0
 10 11  1  0  0  0  0
 10 29  1  0  0  0  0
 11 12  2  0  0  0  0
 11 16  1  0  0  0  0
 12 13  1  0  0  0  0
 12 15  1  0  0  0  0
 13 14  2  0  0  0  0
 13 30  1  0  0  0  0
 14 31  1  0  0  0  0
 15 32  1  0  0  0  0
 15 33  1  0  0  0  0
 15 34  1  0  0  0  0
 16 17  2  0  0  0  0
 16 18  1  0  0  0  0
M  CHG  2  16   1  18  -1
M  END
