
 OpenBabel10072620173D

 40 43  0  0  0  0  0  0  0  0999 V2000
    1.5803    1.2876   -0.3765 C   0  0  0  0  0  0  0  0  0  0  0  0
    0.1961    1.3376   -0.5765 C   0  0  0  0  0  0  0  0  0  0  0  0
   -0.5402    0.1577   -0.6274 C   0  0  0  0  0  0  0  0  0  0  0  0
    0.0970   -1.0710   -0.4866 C   0  0  0  0  0  0  0  0  0  0  0  0
    1.4808   -1.1194   -0.2846 C   0  0  0  0  0  0  0  0  0  0  0  0
    2.2418    0.0584   -0.2123 C   0  0  0  0  0  0  0  0  0  0  0  0
    3.6670    0.0047   -0.0108 N   0  0  0  0  0  0  0  0  0  0  0  0
    4.3322    0.8491    0.8795 C   0  0  0  0  0  0  0  0  0  0  0  0
    5.6264    0.9308    0.9706 N   0  0  0  0  0  0  0  0  0  0  0  0
    6.4153    0.1229    0.1543 C   0  0  0  0  0  0  0  0  0  0  0  0
    5.8680   -0.8146   -0.7128 C   0  0  0  0  0  0  0  0  0  0  0  0
    4.3989   -0.8935   -0.8055 C   0  0  0  0  0  0  0  0  0  0  0  0
    3.9263   -1.7044   -1.6015 O   0  0  0  0  0  0  0  0  0  0  0  0
    6.6878   -1.6362   -1.4991 C   0  0  0  0  0  0  0  0  0  0  0  0
    8.0722   -1.5082   -1.4073 C   0  0  0  0  0  0  0  0  0  0  0  0
    8.6358   -0.5717   -0.5417 C   0  0  0  0  0  0  0  0  0  0  0  0
    7.8051    0.2389    0.2370 C   0  0  0  0  0  0  0  0  0  0  0  0
    9.3025   -2.7119   -2.5694 I   0  0  0  0  0  0  0  0  0  0  0  0
    3.5195    1.6225    1.8626 C   0  0  0  0  0  0  0  0  0  0  0  0
    3.9410    2.8260    2.2779 C   0  0  0  0  0  0  0  0  0  0  0  0
    3.1942    3.5658    3.2333 C   0  0  0  0  0  0  0  0  0  0  0  0
    3.5120    4.7867    3.8257 C   0  0  0  0  0  0  0  0  0  0  0  0
    2.4661    5.1343    4.7174 C   0  0  0  0  0  0  0  0  0  0  0  0
    1.5631    4.1081    4.6198 C   0  0  0  0  0  0  0  0  0  0  0  0
    1.9751    3.1615    3.7407 O   0  0  0  0  0  0  0  0  0  0  0  0
    0.3095    3.8777    5.2640 N   0  3  0  0  0  0  0  0  0  0  0  0
   -0.0583    4.7432    6.0704 O   0  0  0  0  0  0  0  0  0  0  0  0
   -0.3110    2.8475    4.9726 O   0  5  0  0  0  0  0  0  0  0  0  0
   -2.2407    0.2188   -0.8756 Cl  0  0  0  0  0  0  0  0  0  0  0  0
    2.1329    2.2243   -0.3887 H   0  0  0  0  0  0  0  0  0  0  0  0
   -0.2969    2.2984   -0.7013 H   0  0  0  0  0  0  0  0  0  0  0  0
   -0.4716   -1.9962   -0.5337 H   0  0  0  0  0  0  0  0  0  0  0  0
    1.9504   -2.0945   -0.1689 H   0  0  0  0  0  0  0  0  0  0  0  0
    6.2380   -2.3608   -2.1745 H   0  0  0  0  0  0  0  0  0  0  0  0
    9.7142   -0.4609   -0.4580 H   0  0  0  0  0  0  0  0  0  0  0  0
    8.2426    0.9646    0.9186 H   0  0  0  0  0  0  0  0  0  0  0  0
    2.6205    1.1571    2.2522 H   0  0  0  0  0  0  0  0  0  0  0  0
    4.8655    3.2543    1.8991 H   0  0  0  0  0  0  0  0  0  0  0  0
    4.4108    5.3579    3.6303 H   0  0  0  0  0  0  0  0  0  0  0  0
    2.3845    6.0123    5.3436 H   0  0  0  0  0  0  0  0  0  0  0  0
  1  2  2  0  0  0  0
  1  6  1  0  0  0  0
  1 30  1  0  0  0  0
  2  3  1  0  0  0  0
  2 31  1  0  0  0  0
  3  4  2  0  0  0  0
  3 29  1  0  0  0  0
  4  5  1  0  0  0  0
  4 32  1  0  0  0  0
  5  6  2  0  0  0  0
  5 33  1  0  0  0  0
  6  7  1  0  0  0  0
  7  8  1  0  0  0  0
  7 12  1  0  0  0  0
  8  9  2  0  0  0  0
  8 19  1  0  0  0  0
  9 10  1  0  0  0  0
 10 11  2  0  0  0  0
 10 17  1  0  0  0  0
 11 12  1  0  0  0  0
 11 14  1  0  0  0  0
 12 13  2  0  0  0  0
 14 15  2  0  0  0  0
 14 34  1  0  0  0  0
 15 16  1  0  0  0  0
 15 18  1  0  0  0  0
 16 17  2  0  0  0  0
 16 35  1  0  0  0  0
 17 36  1  0  0  0  0
 19 20  2  0  0  0  0
 19 37  1  0  0  0  0
 20 21  1  0  0  0  0
 20 38  1  0  0  0  0
 21 22  2  0  0  0  0
 21 25  1  0  0  0  0
 22 23  1  0  0  0  0
 22 39  1  0  0  0  0
 23 24  2  0  0  0  0
 23 40  1  0  0  0  0
 24 25  1  0  0  0  0
 24 26  1  0  0  0  0
 26 27  2  0  0  0  0
 26 28  1  0  0  0  0
M  CHG  2  26   1  28  -1
M  END
