
 OpenBabel10072616273D

 26 26  0  0  1  0  0  0  0  0999 V2000
    2.2924    1.4870   -1.6445 C   0  0  0  0  0  0  0  0  0  0  0  0
    3.1872    0.6239   -0.8051 C   0  0  0  0  0  0  0  0  0  0  0  0
    3.2920    0.7802    0.5239 C   0  0  0  0  0  0  0  0  0  0  0  0
    3.9486   -0.4179   -1.5581 C   0  0  0  0  0  0  0  0  0  0  0  0
    3.9509   -0.4883   -2.7788 O   0  0  0  0  0  0  0  0  0  0  0  0
    4.6139   -1.2442   -0.7154 O   0  0  0  0  0  0  0  0  0  0  0  0
    5.3828   -2.2978   -1.3172 C   0  0  0  0  0  0  0  0  0  0  0  0
    6.8675   -1.9420   -1.3360 C   0  0  3  0  0  0  0  0  0  0  0  0
    7.2399   -0.7806   -2.2449 C   0  0  0  0  0  0  0  0  0  0  0  0
    8.6945   -1.0751   -2.5206 C   0  0  0  0  0  0  0  0  0  0  0  0
    8.6820   -2.5825   -2.6566 C   0  0  0  0  0  0  0  0  0  0  0  0
    7.6465   -3.0669   -1.7875 O   0  0  0  0  0  0  0  0  0  0  0  0
    1.7044    2.1820   -1.0351 H   0  0  0  0  0  0  0  0  0  0  0  0
    1.5862    0.8698   -2.2091 H   0  0  0  0  0  0  0  0  0  0  0  0
    2.8817    2.0803   -2.3511 H   0  0  0  0  0  0  0  0  0  0  0  0
    2.7261    1.5452    1.0482 H   0  0  0  0  0  0  0  0  0  0  0  0
    3.9395    0.1594    1.1368 H   0  0  0  0  0  0  0  0  0  0  0  0
    5.0213   -2.5721   -2.3163 H   0  0  0  0  0  0  0  0  0  0  0  0
    5.2371   -3.1934   -0.7008 H   0  0  0  0  0  0  0  0  0  0  0  0
    7.1957   -1.7112   -0.3144 H   0  0  0  0  0  0  0  0  0  0  0  0
    7.0757    0.1963   -1.7814 H   0  0  0  0  0  0  0  0  0  0  0  0
    6.6781   -0.8194   -3.1856 H   0  0  0  0  0  0  0  0  0  0  0  0
    9.3059   -0.7831   -1.6583 H   0  0  0  0  0  0  0  0  0  0  0  0
    9.0872   -0.5671   -3.4050 H   0  0  0  0  0  0  0  0  0  0  0  0
    9.6371   -3.0391   -2.3808 H   0  0  0  0  0  0  0  0  0  0  0  0
    8.4285   -2.8868   -3.6782 H   0  0  0  0  0  0  0  0  0  0  0  0
  1  2  1  0  0  0  0
  1 13  1  0  0  0  0
  1 14  1  0  0  0  0
  1 15  1  0  0  0  0
  2  3  2  0  0  0  0
  2  4  1  0  0  0  0
  3 16  1  0  0  0  0
  3 17  1  0  0  0  0
  4  5  2  0  0  0  0
  4  6  1  0  0  0  0
  6  7  1  0  0  0  0
  7  8  1  0  0  0  0
  7 18  1  0  0  0  0
  7 19  1  0  0  0  0
  8  9  1  0  0  0  0
  8 12  1  0  0  0  0
  8 20  1  0  0  0  0
  9 10  1  0  0  0  0
  9 21  1  0  0  0  0
  9 22  1  0  0  0  0
 10 11  1  0  0  0  0
 10 23  1  0  0  0  0
 10 24  1  0  0  0  0
 11 12  1  0  0  0  0
 11 25  1  0  0  0  0
 11 26  1  0  0  0  0
M  END
