
 OpenBabel10072619553D

 47 50  0  0  0  0  0  0  0  0999 V2000
    1.9825   -0.6547   -0.4851 C   0  0  0  0  0  0  0  0  0  0  0  0
    2.0106    0.2828    0.5504 C   0  0  0  0  0  0  0  0  0  0  0  0
    0.8228    0.7922    1.0923 C   0  0  0  0  0  0  0  0  0  0  0  0
   -0.3997    0.3396    0.5766 C   0  0  0  0  0  0  0  0  0  0  0  0
   -0.3934   -0.5953   -0.4522 C   0  0  0  0  0  0  0  0  0  0  0  0
    0.7729   -1.1158   -1.0156 C   0  0  0  0  0  0  0  0  0  0  0  0
   -1.7196   -0.8053   -0.7202 N   0  0  0  0  0  0  0  0  0  0  0  0
   -2.4672   -0.0311    0.1376 C   0  0  0  0  0  0  0  0  0  0  0  0
   -1.6852    0.6839    0.9219 N   0  0  0  0  0  0  0  0  0  0  0  0
   -3.8804   -0.0875    0.0078 C   0  0  0  0  0  0  0  0  0  0  0  0
   -4.5663    1.0678   -0.0430 C   0  0  0  0  0  0  0  0  0  0  0  0
   -6.0254    1.1901    0.0345 C   0  0  0  0  0  0  0  0  0  0  0  0
   -6.6342    1.2776    1.2924 C   0  0  0  0  0  0  0  0  0  0  0  0
   -8.0263    1.4093    1.3824 C   0  0  0  0  0  0  0  0  0  0  0  0
   -8.8152    1.4667    0.2264 C   0  0  0  0  0  0  0  0  0  0  0  0
   -8.2041    1.3633   -1.0244 C   0  0  0  0  0  0  0  0  0  0  0  0
   -6.8158    1.2261   -1.1186 C   0  0  0  0  0  0  0  0  0  0  0  0
   -8.6630    1.4660    2.7034 N   0  3  0  0  0  0  0  0  0  0  0  0
   -7.9380    1.3196    3.6992 O   0  0  0  0  0  0  0  0  0  0  0  0
   -9.8875    1.6477    2.7485 O   0  5  0  0  0  0  0  0  0  0  0  0
   -4.4681   -1.3374    0.0068 N   0  0  0  0  0  0  0  0  0  0  0  0
   -5.1218   -1.8372   -1.1100 C   0  0  0  0  0  0  0  0  0  0  0  0
   -5.1646   -1.2775   -2.1996 O   0  0  0  0  0  0  0  0  0  0  0  0
   -5.6668   -3.2124   -0.9680 C   0  0  0  0  0  0  0  0  0  0  0  0
   -6.1759   -3.6718    0.2493 C   0  0  0  0  0  0  0  0  0  0  0  0
   -6.6879   -4.9706    0.3406 C   0  0  0  0  0  0  0  0  0  0  0  0
   -6.6728   -5.8305   -0.7633 C   0  0  0  0  0  0  0  0  0  0  0  0
   -6.2242   -5.3368   -1.9911 C   0  0  0  0  0  0  0  0  0  0  0  0
   -5.7086   -4.0414   -2.0936 C   0  0  0  0  0  0  0  0  0  0  0  0
   -7.3189   -7.0687   -0.6977 N   0  0  0  0  0  0  0  0  0  0  0  0
    2.9206   -1.0272   -0.8917 H   0  0  0  0  0  0  0  0  0  0  0  0
    2.9652    0.6309    0.9379 H   0  0  0  0  0  0  0  0  0  0  0  0
    0.8392    1.5284    1.8877 H   0  0  0  0  0  0  0  0  0  0  0  0
    0.7526   -1.8323   -1.8296 H   0  0  0  0  0  0  0  0  0  0  0  0
   -2.1007   -1.3953   -1.4456 H   0  0  0  0  0  0  0  0  0  0  0  0
   -4.0345    2.0183   -0.0280 H   0  0  0  0  0  0  0  0  0  0  0  0
   -6.0189    1.2427    2.1900 H   0  0  0  0  0  0  0  0  0  0  0  0
   -9.8954    1.5831    0.2816 H   0  0  0  0  0  0  0  0  0  0  0  0
   -8.8058    1.3895   -1.9307 H   0  0  0  0  0  0  0  0  0  0  0  0
   -6.3551    1.1245   -2.1006 H   0  0  0  0  0  0  0  0  0  0  0  0
   -3.9967   -2.0444    0.5600 H   0  0  0  0  0  0  0  0  0  0  0  0
   -6.2235   -3.0219    1.1197 H   0  0  0  0  0  0  0  0  0  0  0  0
   -7.1114   -5.3031    1.2852 H   0  0  0  0  0  0  0  0  0  0  0  0
   -6.2781   -5.9537   -2.8850 H   0  0  0  0  0  0  0  0  0  0  0  0
   -5.3536   -3.6794   -3.0568 H   0  0  0  0  0  0  0  0  0  0  0  0
   -7.3341   -7.4816    0.2296 H   0  0  0  0  0  0  0  0  0  0  0  0
   -7.0303   -7.7313   -1.4108 H   0  0  0  0  0  0  0  0  0  0  0  0
  1  2  2  0  0  0  0
  1  6  1  0  0  0  0
  1 31  1  0  0  0  0
  2  3  1  0  0  0  0
  2 32  1  0  0  0  0
  3  4  2  0  0  0  0
  3 33  1  0  0  0  0
  4  5  1  0  0  0  0
  4  9  1  0  0  0  0
  5  6  2  0  0  0  0
  5  7  1  0  0  0  0
  6 34  1  0  0  0  0
  7  8  1  0  0  0  0
  7 35  1  0  0  0  0
  8  9  2  0  0  0  0
  8 10  1  0  0  0  0
 10 11  2  0  0  0  0
 10 21  1  0  0  0  0
 11 12  1  0  0  0  0
 11 36  1  0  0  0  0
 12 13  2  0  0  0  0
 12 17  1  0  0  0  0
 13 14  1  0  0  0  0
 13 37  1  0  0  0  0
 14 15  2  0  0  0  0
 14 18  1  0  0  0  0
 15 16  1  0  0  0  0
 15 38  1  0  0  0  0
 16 17  2  0  0  0  0
 16 39  1  0  0  0  0
 17 40  1  0  0  0  0
 18 19  2  0  0  0  0
 18 20  1  0  0  0  0
 21 22  1  0  0  0  0
 21 41  1  0  0  0  0
 22 23  2  0  0  0  0
 22 24  1  0  0  0  0
 24 25  2  0  0  0  0
 24 29  1  0  0  0  0
 25 26  1  0  0  0  0
 25 42  1  0  0  0  0
 26 27  2  0  0  0  0
 26 43  1  0  0  0  0
 27 28  1  0  0  0  0
 27 30  1  0  0  0  0
 28 29  2  0  0  0  0
 28 44  1  0  0  0  0
 29 45  1  0  0  0  0
 30 46  1  0  0  0  0
 30 47  1  0  0  0  0
M  CHG  2  18   1  20  -1
M  END
