
 OpenBabel10072620193D

 30 31  0  0  1  0  0  0  0  0999 V2000
   -1.2657   -1.0327    1.8071 C   0  0  0  0  0  0  0  0  0  0  0  0
   -0.0766   -1.6854    1.1424 C   0  0  0  0  0  0  0  0  0  0  0  0
   -0.1704   -1.1071   -0.2619 C   0  0  3  0  0  0  0  0  0  0  0  0
   -1.5845   -0.9842   -0.5430 O   0  0  0  0  0  0  0  0  0  0  0  0
   -2.2997   -1.0632    0.7009 C   0  0  0  0  0  0  0  0  0  0  0  0
    0.5180   -1.9284   -1.3603 C   0  0  0  0  0  0  0  0  0  0  0  0
   -0.1852   -3.2159   -1.5236 N   0  0  0  0  0  0  0  0  0  0  0  0
    0.3279   -4.2657   -2.7271 S   0  0  0  0  0  0  0  0  0  0  0  0
   -0.7645   -5.1830   -2.9636 O   0  0  0  0  0  0  0  0  0  0  0  0
    0.9196   -3.4867   -3.7892 O   0  0  0  0  0  0  0  0  0  0  0  0
    1.5933   -5.1769   -1.9173 C   0  0  0  0  0  0  0  0  0  0  0  0
    2.8939   -5.1233   -2.3853 C   0  0  0  0  0  0  0  0  0  0  0  0
    3.9138   -5.8060   -1.8101 N   0  0  0  0  0  0  0  0  0  0  0  0
    3.6032   -6.5672   -0.7381 C   0  0  0  0  0  0  0  0  0  0  0  0
    2.3292   -6.6857   -0.2053 C   0  0  0  0  0  0  0  0  0  0  0  0
    1.2972   -5.9761   -0.8135 C   0  0  0  0  0  0  0  0  0  0  0  0
    4.9316   -7.3943   -0.0393 Cl  0  0  0  0  0  0  0  0  0  0  0  0
   -1.0220    0.0049    2.0669 H   0  0  0  0  0  0  0  0  0  0  0  0
   -1.6025   -1.5419    2.7139 H   0  0  0  0  0  0  0  0  0  0  0  0
   -0.2130   -2.7732    1.1434 H   0  0  0  0  0  0  0  0  0  0  0  0
    0.8740   -1.4568    1.6332 H   0  0  0  0  0  0  0  0  0  0  0  0
    0.2423   -0.0909   -0.2670 H   0  0  0  0  0  0  0  0  0  0  0  0
   -2.8528   -2.0082    0.7042 H   0  0  0  0  0  0  0  0  0  0  0  0
   -3.0194   -0.2428    0.7740 H   0  0  0  0  0  0  0  0  0  0  0  0
    1.5734   -2.0923   -1.1193 H   0  0  0  0  0  0  0  0  0  0  0  0
    0.4380   -1.3718   -2.3012 H   0  0  0  0  0  0  0  0  0  0  0  0
   -1.2064   -3.1390   -1.4957 H   0  0  0  0  0  0  0  0  0  0  0  0
    3.1753   -4.5227   -3.2475 H   0  0  0  0  0  0  0  0  0  0  0  0
    2.1420   -7.3101    0.6605 H   0  0  0  0  0  0  0  0  0  0  0  0
    0.2827   -6.0395   -0.4285 H   0  0  0  0  0  0  0  0  0  0  0  0
  1  2  1  0  0  0  0
  1  5  1  0  0  0  0
  1 18  1  0  0  0  0
  1 19  1  0  0  0  0
  2  3  1  0  0  0  0
  2 20  1  0  0  0  0
  2 21  1  0  0  0  0
  3  4  1  0  0  0  0
  3  6  1  0  0  0  0
  3 22  1  0  0  0  0
  4  5  1  0  0  0  0
  5 23  1  0  0  0  0
  5 24  1  0  0  0  0
  6  7  1  0  0  0  0
  6 25  1  0  0  0  0
  6 26  1  0  0  0  0
  7  8  1  0  0  0  0
  7 27  1  0  0  0  0
  8  9  2  0  0  0  0
  8 10  2  0  0  0  0
  8 11  1  0  0  0  0
 11 12  2  0  0  0  0
 11 16  1  0  0  0  0
 12 13  1  0  0  0  0
 12 28  1  0  0  0  0
 13 14  2  0  0  0  0
 14 15  1  0  0  0  0
 14 17  1  0  0  0  0
 15 16  2  0  0  0  0
 15 29  1  0  0  0  0
 16 30  1  0  0  0  0
M  END
