
 OpenBabel10072619583D

 77 80  0  0  1  0  0  0  0  0999 V2000
    3.2626   -1.1293    0.6061 C   0  0  0  0  0  0  0  0  0  0  0  0
    2.1490   -0.1159    0.7732 C   0  0  0  0  0  0  0  0  0  0  0  0
    2.4757    1.1017    0.4766 N   0  0  0  0  0  0  0  0  0  0  0  0
    1.4958    2.0905    0.4866 C   0  0  0  0  0  0  0  0  0  0  0  0
    1.8615    3.3936    0.1410 C   0  0  0  0  0  0  0  0  0  0  0  0
    0.9096    4.4135    0.1032 C   0  0  0  0  0  0  0  0  0  0  0  0
   -0.4197    4.1339    0.4160 C   0  0  0  0  0  0  0  0  0  0  0  0
   -0.7933    2.8347    0.7652 C   0  0  0  0  0  0  0  0  0  0  0  0
    0.1706    1.8170    0.7962 C   0  0  0  0  0  0  0  0  0  0  0  0
   -0.1771    0.4296    1.1585 C   0  0  0  0  0  0  0  0  0  0  0  0
   -1.3482    0.2018    1.4670 O   0  0  0  0  0  0  0  0  0  0  0  0
    0.8714   -0.5097    1.1506 N   0  0  0  0  0  0  0  0  0  0  0  0
    0.5649   -1.8582    1.5460 C   0  0  0  0  0  0  0  0  0  0  0  0
   -0.5652   -2.5089    1.0398 C   0  0  0  0  0  0  0  0  0  0  0  0
   -0.8685   -3.8254    1.4123 C   0  0  0  0  0  0  0  0  0  0  0  0
   -0.0727   -4.5220    2.3307 C   0  0  0  0  0  0  0  0  0  0  0  0
    1.0636   -3.8866    2.8225 C   0  0  0  0  0  0  0  0  0  0  0  0
    1.3695   -2.5666    2.4472 C   0  0  0  0  0  0  0  0  0  0  0  0
   -0.4914   -5.8337    2.6593 N   0  0  0  0  0  0  0  0  0  0  0  0
   -0.1560   -6.6843    3.6809 C   0  0  0  0  0  0  0  0  0  0  0  0
    0.7414   -6.3783    5.0549 S   0  0  0  0  0  0  0  0  0  0  0  0
   -0.6651   -7.9501    3.5906 N   0  0  0  0  0  0  0  0  0  0  0  0
   -1.2188   -8.6660    2.4562 C   0  0  1  0  0  0  0  0  0  0  0  0
   -0.2246   -9.7040    1.8933 C   0  0  1  0  0  0  0  0  0  0  0  0
   -0.8901  -10.6203    0.8499 C   0  0  2  0  0  0  0  0  0  0  0  0
   -2.2844  -11.1074    1.2868 C   0  0  1  0  0  0  0  0  0  0  0  0
   -3.1103   -9.9672    1.9133 C   0  0  2  0  0  0  0  0  0  0  0  0
   -2.3676   -9.3349    2.9630 O   0  0  0  0  0  0  0  0  0  0  0  0
   -4.4222  -10.4906    2.5181 C   0  0  0  0  0  0  0  0  0  0  0  0
   -5.2983  -10.9332    1.4737 O   0  0  0  0  0  0  0  0  0  0  0  0
   -6.2558  -11.8174    1.8607 C   0  0  0  0  0  0  0  0  0  0  0  0
   -6.4059  -12.2555    2.9917 O   0  0  0  0  0  0  0  0  0  0  0  0
   -7.0880  -12.2205    0.6825 C   0  0  0  0  0  0  0  0  0  0  0  0
   -2.9749  -11.5972    0.1107 O   0  0  0  0  0  0  0  0  0  0  0  0
   -2.9112  -12.9314   -0.1425 C   0  0  0  0  0  0  0  0  0  0  0  0
   -2.3160  -13.7559    0.5326 O   0  0  0  0  0  0  0  0  0  0  0  0
   -3.6422  -13.2487   -1.4120 C   0  0  0  0  0  0  0  0  0  0  0  0
   -0.0670  -11.8089    0.6828 O   0  0  0  0  0  0  0  0  0  0  0  0
    0.7996  -11.8394   -0.3612 C   0  0  0  0  0  0  0  0  0  0  0  0
    0.9949  -10.9227   -1.1445 O   0  0  0  0  0  0  0  0  0  0  0  0
    1.4909  -13.1689   -0.4191 C   0  0  0  0  0  0  0  0  0  0  0  0
    1.0022   -9.1203    1.3890 O   0  0  0  0  0  0  0  0  0  0  0  0
    0.9234   -8.2163    0.3746 C   0  0  0  0  0  0  0  0  0  0  0  0
   -0.1169   -7.7858   -0.1015 O   0  0  0  0  0  0  0  0  0  0  0  0
    2.2989   -7.8035   -0.0477 C   0  0  0  0  0  0  0  0  0  0  0  0
    3.9850   -0.7513   -0.1264 H   0  0  0  0  0  0  0  0  0  0  0  0
    2.8963   -2.0888    0.2366 H   0  0  0  0  0  0  0  0  0  0  0  0
    3.7936   -1.2536    1.5531 H   0  0  0  0  0  0  0  0  0  0  0  0
    2.8976    3.6074   -0.1107 H   0  0  0  0  0  0  0  0  0  0  0  0
    1.2084    5.4217   -0.1727 H   0  0  0  0  0  0  0  0  0  0  0  0
   -1.1632    4.9270    0.3852 H   0  0  0  0  0  0  0  0  0  0  0  0
   -1.8307    2.6188    1.0109 H   0  0  0  0  0  0  0  0  0  0  0  0
   -1.2260   -2.0083    0.3353 H   0  0  0  0  0  0  0  0  0  0  0  0
   -1.7488   -4.2883    0.9718 H   0  0  0  0  0  0  0  0  0  0  0  0
    1.7497   -4.3779    3.5023 H   0  0  0  0  0  0  0  0  0  0  0  0
    2.2343   -2.1014    2.9117 H   0  0  0  0  0  0  0  0  0  0  0  0
   -1.3273   -6.1109    2.1652 H   0  0  0  0  0  0  0  0  0  0  0  0
   -0.4630   -8.5207    4.4030 H   0  0  0  0  0  0  0  0  0  0  0  0
   -1.5443   -7.9577    1.6968 H   0  0  0  0  0  0  0  0  0  0  0  0
    0.1010  -10.3454    2.7238 H   0  0  0  0  0  0  0  0  0  0  0  0
   -0.9870  -10.1195   -0.1191 H   0  0  0  0  0  0  0  0  0  0  0  0
   -2.1732  -11.9064    2.0319 H   0  0  0  0  0  0  0  0  0  0  0  0
   -3.3683   -9.2239    1.1469 H   0  0  0  0  0  0  0  0  0  0  0  0
   -4.9240   -9.6852    3.0686 H   0  0  0  0  0  0  0  0  0  0  0  0
   -4.2003  -11.2921    3.2343 H   0  0  0  0  0  0  0  0  0  0  0  0
   -7.2450  -11.3659    0.0185 H   0  0  0  0  0  0  0  0  0  0  0  0
   -8.0685  -12.5559    1.0300 H   0  0  0  0  0  0  0  0  0  0  0  0
   -6.5928  -13.0294    0.1421 H   0  0  0  0  0  0  0  0  0  0  0  0
   -4.5523  -12.6473   -1.4844 H   0  0  0  0  0  0  0  0  0  0  0  0
   -3.9393  -14.3008   -1.4054 H   0  0  0  0  0  0  0  0  0  0  0  0
   -2.9931  -13.0534   -2.2684 H   0  0  0  0  0  0  0  0  0  0  0  0
    0.7536  -13.9732   -0.5017 H   0  0  0  0  0  0  0  0  0  0  0  0
    2.1106  -13.3025    0.4714 H   0  0  0  0  0  0  0  0  0  0  0  0
    2.1342  -13.2002   -1.3038 H   0  0  0  0  0  0  0  0  0  0  0  0
    2.9194   -8.6935   -0.1830 H   0  0  0  0  0  0  0  0  0  0  0  0
    2.7338   -7.1463    0.7086 H   0  0  0  0  0  0  0  0  0  0  0  0
    2.2508   -7.2770   -1.0049 H   0  0  0  0  0  0  0  0  0  0  0  0
  1  2  1  0  0  0  0
  1 46  1  0  0  0  0
  1 47  1  0  0  0  0
  1 48  1  0  0  0  0
  2  3  2  0  0  0  0
  2 12  1  0  0  0  0
  3  4  1  0  0  0  0
  4  5  2  0  0  0  0
  4  9  1  0  0  0  0
  5  6  1  0  0  0  0
  5 49  1  0  0  0  0
  6  7  2  0  0  0  0
  6 50  1  0  0  0  0
  7  8  1  0  0  0  0
  7 51  1  0  0  0  0
  8  9  2  0  0  0  0
  8 52  1  0  0  0  0
  9 10  1  0  0  0  0
 10 11  2  0  0  0  0
 10 12  1  0  0  0  0
 12 13  1  0  0  0  0
 13 14  2  0  0  0  0
 13 18  1  0  0  0  0
 14 15  1  0  0  0  0
 14 53  1  0  0  0  0
 15 16  2  0  0  0  0
 15 54  1  0  0  0  0
 16 17  1  0  0  0  0
 16 19  1  0  0  0  0
 17 18  2  0  0  0  0
 17 55  1  0  0  0  0
 18 56  1  0  0  0  0
 19 20  1  0  0  0  0
 19 57  1  0  0  0  0
 20 21  2  0  0  0  0
 20 22  1  0  0  0  0
 22 58  1  0  0  0  0
 23 24  1  0  0  0  0
 23 28  1  0  0  0  0
 23 22  1  0  0  0  0
 23 59  1  6  0  0  0
 24 25  1  0  0  0  0
 24 42  1  0  0  0  0
 24 60  1  1  0  0  0
 25 26  1  0  0  0  0
 25 38  1  0  0  0  0
 25 61  1  6  0  0  0
 26 27  1  0  0  0  0
 26 34  1  0  0  0  0
 26 62  1  1  0  0  0
 27 28  1  0  0  0  0
 27 29  1  0  0  0  0
 27 63  1  6  0  0  0
 29 30  1  0  0  0  0
 29 64  1  0  0  0  0
 29 65  1  0  0  0  0
 30 31  1  0  0  0  0
 31 32  2  0  0  0  0
 31 33  1  0  0  0  0
 33 66  1  0  0  0  0
 33 67  1  0  0  0  0
 33 68  1  0  0  0  0
 34 35  1  0  0  0  0
 35 36  2  0  0  0  0
 35 37  1  0  0  0  0
 37 69  1  0  0  0  0
 37 70  1  0  0  0  0
 37 71  1  0  0  0  0
 38 39  1  0  0  0  0
 39 40  2  0  0  0  0
 39 41  1  0  0  0  0
 41 72  1  0  0  0  0
 41 73  1  0  0  0  0
 41 74  1  0  0  0  0
 42 43  1  0  0  0  0
 43 44  2  0  0  0  0
 43 45  1  0  0  0  0
 45 75  1  0  0  0  0
 45 76  1  0  0  0  0
 45 77  1  0  0  0  0
M  END
