
 OpenBabel10072619533D

 18 18  0  0  0  0  0  0  0  0999 V2000
   -0.5567    1.2443   -0.0961 C   0  0  0  0  0  0  0  0  0  0  0  0
   -1.3041    0.0660   -0.0417 C   0  0  0  0  0  0  0  0  0  0  0  0
   -0.6891   -1.1339   -0.0181 N   0  0  0  0  0  0  0  0  0  0  0  0
    0.6598   -1.1436   -0.0625 C   0  0  0  0  0  0  0  0  0  0  0  0
    1.3832    0.0564   -0.1256 C   0  0  0  0  0  0  0  0  0  0  0  0
    0.7971    1.2758   -0.1323 N   0  0  0  0  0  0  0  0  0  0  0  0
    3.1004    0.1021   -0.1644 Cl  0  0  0  0  0  0  0  0  0  0  0  0
    1.2460   -2.4110   -0.0888 N   0  0  0  0  0  0  0  0  0  0  0  0
   -2.7010    0.1646    0.0133 N   0  0  0  0  0  0  0  0  0  0  0  0
   -3.5683   -0.8897   -0.0296 C   0  0  0  0  0  0  0  0  0  0  0  0
   -3.3313   -2.0770   -0.1855 O   0  0  0  0  0  0  0  0  0  0  0  0
   -4.8655   -0.4803    0.1121 N   0  0  0  0  0  0  0  0  0  0  0  0
   -1.0312    2.2198   -0.1092 H   0  0  0  0  0  0  0  0  0  0  0  0
    0.4966   -3.0918    0.0265 H   0  0  0  0  0  0  0  0  0  0  0  0
    1.9793   -2.5111    0.6039 H   0  0  0  0  0  0  0  0  0  0  0  0
   -3.1168    1.0792   -0.0494 H   0  0  0  0  0  0  0  0  0  0  0  0
   -5.0501    0.2124    0.8228 H   0  0  0  0  0  0  0  0  0  0  0  0
   -5.5000   -1.2711    0.1501 H   0  0  0  0  0  0  0  0  0  0  0  0
  1  2  2  0  0  0  0
  1  6  1  0  0  0  0
  1 13  1  0  0  0  0
  2  3  1  0  0  0  0
  2  9  1  0  0  0  0
  3  4  2  0  0  0  0
  4  5  1  0  0  0  0
  4  8  1  0  0  0  0
  5  6  2  0  0  0  0
  5  7  1  0  0  0  0
  8 14  1  0  0  0  0
  8 15  1  0  0  0  0
  9 10  1  0  0  0  0
  9 16  1  0  0  0  0
 10 11  2  0  0  0  0
 10 12  1  0  0  0  0
 12 17  1  0  0  0  0
 12 18  1  0  0  0  0
M  END
