
 OpenBabel10072616423D

 56 59  0  0  1  0  0  0  0  0999 V2000
    5.0364   -0.1079    1.2530 C   0  0  0  0  0  0  0  0  0  0  0  0
    5.3398   -1.3119    0.4971 N   0  0  0  0  0  0  0  0  0  0  0  0
    5.6930   -1.1618   -0.9273 N   0  3  0  0  0  0  0  0  0  0  0  0
    5.4056   -2.1977   -1.7534 C   0  0  0  0  0  0  0  0  0  0  0  0
    5.7572   -2.1732   -3.0950 C   0  0  0  0  0  0  0  0  0  0  0  0
    6.4279   -1.0723   -3.6106 C   0  0  0  0  0  0  0  0  0  0  0  0
    6.7468   -0.0260   -2.7463 C   0  0  0  0  0  0  0  0  0  0  0  0
    6.3625   -0.0848   -1.4070 C   0  0  0  0  0  0  0  0  0  0  0  0
    6.8756   -1.0866   -5.3398 S   0  0  0  0  0  0  0  0  0  0  0  0
    6.0437    0.4597   -5.8901 C   0  0  0  0  0  0  0  0  0  0  0  0
    6.3045    0.8612   -7.3444 C   0  0  0  0  0  0  0  0  0  0  0  0
    6.2336    2.1649   -7.7637 C   0  0  0  0  0  0  0  0  0  0  0  0
    6.5139    2.4586   -9.0875 N   0  0  0  0  0  0  0  0  0  0  0  0
    7.1735    1.5472  -10.0027 C   0  0  2  0  0  0  0  0  0  0  0  0
    6.9155    2.5886  -11.1207 C   0  0  2  0  0  0  0  0  0  0  0  0
    6.3672    3.4755   -9.9736 C   0  0  0  0  0  0  0  0  0  0  0  0
    5.9485    4.6095   -9.9760 O   0  0  0  0  0  0  0  0  0  0  0  0
    5.9485    2.2341  -12.2006 N   0  0  0  0  0  0  0  0  0  0  0  0
    6.3199    1.4729  -13.2869 C   0  0  0  0  0  0  0  0  0  0  0  0
    7.4701    1.1287  -13.5338 O   0  0  0  0  0  0  0  0  0  0  0  0
    5.1557    1.0709  -14.2077 C   0  0  0  0  0  0  0  0  0  0  0  0
    3.9952    0.9689  -13.6141 N   0  0  0  0  0  0  0  0  0  0  0  0
    2.9554    0.6653  -14.4999 O   0  0  0  0  0  0  0  0  0  0  0  0
    1.7548    0.5158  -13.7583 C   0  0  0  0  0  0  0  0  0  0  0  0
    5.3990    0.8763  -15.6454 C   0  0  0  0  0  0  0  0  0  0  0  0
    6.4154    1.5082  -16.3431 C   0  0  0  0  0  0  0  0  0  0  0  0
    6.3919    1.0575  -17.9927 S   0  0  0  0  0  0  0  0  0  0  0  0
    5.0273    0.0690  -17.6909 C   0  0  0  0  0  0  0  0  0  0  0  0
    4.6335    0.0207  -16.4447 N   0  0  0  0  0  0  0  0  0  0  0  0
    4.4368   -0.6098  -18.6859 N   0  0  0  0  0  0  0  0  0  0  0  0
    6.2020    0.0201  -10.0474 S   0  0  0  0  0  0  0  0  0  0  0  0
    6.5050   -0.3142   -8.2935 C   0  0  0  0  0  0  0  0  0  0  0  0
    5.7196    3.3309   -6.7716 C   0  0  0  0  0  0  0  0  0  0  0  0
    5.9560    3.1633   -5.5387 O   0  0  0  0  0  0  0  0  0  0  0  0
    5.1047    4.2854   -7.3107 O   0  5  0  0  0  0  0  0  0  0  0  0
    4.6425   -0.3915    2.2382 H   0  0  0  0  0  0  0  0  0  0  0  0
    4.2705    0.4838    0.7461 H   0  0  0  0  0  0  0  0  0  0  0  0
    5.9284    0.5019    1.4277 H   0  0  0  0  0  0  0  0  0  0  0  0
    4.6146   -2.0178    0.6238 H   0  0  0  0  0  0  0  0  0  0  0  0
    4.8867   -3.0506   -1.3276 H   0  0  0  0  0  0  0  0  0  0  0  0
    5.5151   -3.0189   -3.7331 H   0  0  0  0  0  0  0  0  0  0  0  0
    7.2979    0.8463   -3.0960 H   0  0  0  0  0  0  0  0  0  0  0  0
    6.6057    0.7181   -0.7197 H   0  0  0  0  0  0  0  0  0  0  0  0
    6.4599    1.1841   -5.2012 H   0  0  0  0  0  0  0  0  0  0  0  0
    4.9650    0.3486   -5.7204 H   0  0  0  0  0  0  0  0  0  0  0  0
    8.2423    1.4064   -9.7989 H   0  0  0  0  0  0  0  0  0  0  0  0
    7.8311    3.0237  -11.5454 H   0  0  0  0  0  0  0  0  0  0  0  0
    4.9487    2.2525  -12.0019 H   0  0  0  0  0  0  0  0  0  0  0  0
    0.9568    0.2266  -14.4472 H   0  0  0  0  0  0  0  0  0  0  0  0
    1.4868    1.4642  -13.2832 H   0  0  0  0  0  0  0  0  0  0  0  0
    1.8702   -0.2669  -13.0022 H   0  0  0  0  0  0  0  0  0  0  0  0
    7.1487    2.2073  -15.9688 H   0  0  0  0  0  0  0  0  0  0  0  0
    4.9838   -0.7996  -19.5156 H   0  0  0  0  0  0  0  0  0  0  0  0
    3.8089   -1.3526  -18.4035 H   0  0  0  0  0  0  0  0  0  0  0  0
    7.5297   -0.6851   -8.1951 H   0  0  0  0  0  0  0  0  0  0  0  0
    5.8120   -1.1249   -8.0376 H   0  0  0  0  0  0  0  0  0  0  0  0
  1  2  1  0  0  0  0
  1 36  1  0  0  0  0
  1 37  1  0  0  0  0
  1 38  1  0  0  0  0
  2  3  1  0  0  0  0
  2 39  1  0  0  0  0
  3  4  2  0  0  0  0
  3  8  1  0  0  0  0
  4  5  1  0  0  0  0
  4 40  1  0  0  0  0
  5  6  2  0  0  0  0
  5 41  1  0  0  0  0
  6  7  1  0  0  0  0
  6  9  1  0  0  0  0
  7  8  2  0  0  0  0
  7 42  1  0  0  0  0
  8 43  1  0  0  0  0
  9 10  1  0  0  0  0
 10 11  1  0  0  0  0
 10 44  1  0  0  0  0
 10 45  1  0  0  0  0
 11 12  2  0  0  0  0
 11 32  1  0  0  0  0
 12 13  1  0  0  0  0
 12 33  1  0  0  0  0
 13 14  1  0  0  0  0
 13 16  1  0  0  0  0
 14 15  1  0  0  0  0
 14 31  1  0  0  0  0
 14 46  1  1  0  0  0
 15 16  1  0  0  0  0
 15 18  1  0  0  0  0
 15 47  1  6  0  0  0
 16 17  2  0  0  0  0
 18 19  1  0  0  0  0
 18 48  1  0  0  0  0
 19 20  2  0  0  0  0
 19 21  1  0  0  0  0
 21 22  2  0  0  0  0
 21 25  1  0  0  0  0
 22 23  1  0  0  0  0
 23 24  1  0  0  0  0
 24 49  1  0  0  0  0
 24 50  1  0  0  0  0
 24 51  1  0  0  0  0
 25 26  2  0  0  0  0
 25 29  1  0  0  0  0
 26 27  1  0  0  0  0
 26 52  1  0  0  0  0
 27 28  1  0  0  0  0
 28 29  2  0  0  0  0
 28 30  1  0  0  0  0
 30 53  1  0  0  0  0
 30 54  1  0  0  0  0
 31 32  1  0  0  0  0
 32 55  1  0  0  0  0
 32 56  1  0  0  0  0
 33 34  2  0  0  0  0
 33 35  1  0  0  0  0
M  CHG  2   3   1  35  -1
M  END
