
 OpenBabel10072619593D

 58 57  0  0  1  0  0  0  0  0999 V2000
   12.7369    3.1722   -3.1724 C   0  0  0  0  0  0  0  0  0  0  0  0
   11.9155    2.2690   -3.7228 C   0  0  0  0  0  0  0  0  0  0  0  0
   10.5028    2.1729   -3.3011 C   0  0  0  0  0  0  0  0  0  0  0  0
    9.9636    2.8700   -2.4588 O   0  0  0  0  0  0  0  0  0  0  0  0
    9.9171    1.1799   -4.0156 O   0  0  0  0  0  0  0  0  0  0  0  0
    8.5352    0.9395   -3.7000 C   0  0  0  0  0  0  0  0  0  0  0  0
    8.4015    0.0956   -2.4179 C   0  0  3  0  0  0  0  0  0  0  0  0
    6.9343   -0.1972   -2.1073 C   0  0  0  0  0  0  0  0  0  0  0  0
    6.6834   -1.1173   -0.9125 C   0  0  0  0  0  0  0  0  0  0  0  0
    7.2404   -0.7049    0.4519 C   0  0  0  0  0  0  0  0  0  0  0  0
    6.7551    0.6392    0.9772 C   0  0  0  0  0  0  0  0  0  0  0  0
    5.2599    0.8220    1.2047 C   0  0  0  0  0  0  0  0  0  0  0  0
    4.5544   -0.1385    2.1540 C   0  0  0  0  0  0  0  0  0  0  0  0
    5.0413   -0.1893    3.5965 C   0  0  0  0  0  0  0  0  0  0  0  0
    4.9624    1.0906    4.4196 C   0  0  0  0  0  0  0  0  0  0  0  0
    3.5944    1.7307    4.6228 C   0  0  0  0  0  0  0  0  0  0  0  0
    2.5233    0.9017    5.3229 C   0  0  0  0  0  0  0  0  0  0  0  0
    2.8112    0.4128    6.7448 C   0  0  0  0  0  0  0  0  0  0  0  0
    3.1122    1.4263    7.8222 C   0  0  0  0  0  0  0  0  0  0  0  0
    1.9889    2.3897    8.0428 C   0  0  0  0  0  0  0  0  0  0  0  0
    0.8154    1.7749    8.2861 F   0  0  0  0  0  0  0  0  0  0  0  0
    2.2253    3.2307    9.0721 F   0  0  0  0  0  0  0  0  0  0  0  0
    1.8075    3.1740    6.9572 F   0  0  0  0  0  0  0  0  0  0  0  0
    3.3200    0.7169    9.1278 C   0  0  0  0  0  0  0  0  0  0  0  0
    4.3299   -0.1804    9.0538 F   0  0  0  0  0  0  0  0  0  0  0  0
    3.6548    1.5767   10.1178 F   0  0  0  0  0  0  0  0  0  0  0  0
    2.2261    0.0469    9.5445 F   0  0  0  0  0  0  0  0  0  0  0  0
    4.2540    2.1037    7.4913 F   0  0  0  0  0  0  0  0  0  0  0  0
    1.7465   -0.3482    7.1391 F   0  0  0  0  0  0  0  0  0  0  0  0
    3.8495   -0.4692    6.6677 F   0  0  0  0  0  0  0  0  0  0  0  0
    1.3533    1.6067    5.3411 F   0  0  0  0  0  0  0  0  0  0  0  0
    2.2460   -0.1827    4.5388 F   0  0  0  0  0  0  0  0  0  0  0  0
    3.7578    2.8938    5.3226 F   0  0  0  0  0  0  0  0  0  0  0  0
    3.1206    2.1313    3.4063 F   0  0  0  0  0  0  0  0  0  0  0  0
    5.5039    0.8508    5.6520 F   0  0  0  0  0  0  0  0  0  0  0  0
    5.7986    2.0138    3.8585 F   0  0  0  0  0  0  0  0  0  0  0  0
    4.3501   -1.1649    4.2581 F   0  0  0  0  0  0  0  0  0  0  0  0
    6.3341   -0.6296    3.6007 F   0  0  0  0  0  0  0  0  0  0  0  0
    3.2195    0.1570    2.1642 F   0  0  0  0  0  0  0  0  0  0  0  0
    4.6148   -1.3959    1.6263 F   0  0  0  0  0  0  0  0  0  0  0  0
    5.0396    2.0970    1.6509 F   0  0  0  0  0  0  0  0  0  0  0  0
    4.6332    0.7904   -0.0111 F   0  0  0  0  0  0  0  0  0  0  0  0
    7.3994    0.9180    2.1501 F   0  0  0  0  0  0  0  0  0  0  0  0
    7.1731    1.6171    0.1121 F   0  0  0  0  0  0  0  0  0  0  0  0
    6.9428   -1.6655    1.3742 F   0  0  0  0  0  0  0  0  0  0  0  0
    8.6053   -0.6782    0.4010 F   0  0  0  0  0  0  0  0  0  0  0  0
    5.3291   -1.2663   -0.8065 F   0  0  0  0  0  0  0  0  0  0  0  0
    7.1317   -2.3674   -1.2286 F   0  0  0  0  0  0  0  0  0  0  0  0
    9.1138   -1.1316   -2.5584 O   0  0  0  0  0  0  0  0  0  0  0  0
   13.7748    3.2390   -3.4807 H   0  0  0  0  0  0  0  0  0  0  0  0
   12.3951    3.8596   -2.4030 H   0  0  0  0  0  0  0  0  0  0  0  0
   12.2602    1.5825   -4.4864 H   0  0  0  0  0  0  0  0  0  0  0  0
    8.1234    0.3919   -4.5552 H   0  0  0  0  0  0  0  0  0  0  0  0
    7.9857    1.8856   -3.6245 H   0  0  0  0  0  0  0  0  0  0  0  0
    8.8646    0.6283   -1.5831 H   0  0  0  0  0  0  0  0  0  0  0  0
    6.4862   -0.6910   -2.9804 H   0  0  0  0  0  0  0  0  0  0  0  0
    6.3822    0.7405   -1.9784 H   0  0  0  0  0  0  0  0  0  0  0  0
    9.0172   -1.4622   -3.4681 H   0  0  0  0  0  0  0  0  0  0  0  0
  1  2  2  0  0  0  0
  1 50  1  0  0  0  0
  1 51  1  0  0  0  0
  2  3  1  0  0  0  0
  2 52  1  0  0  0  0
  3  4  2  0  0  0  0
  3  5  1  0  0  0  0
  5  6  1  0  0  0  0
  6  7  1  0  0  0  0
  6 53  1  0  0  0  0
  6 54  1  0  0  0  0
  7  8  1  0  0  0  0
  7 49  1  0  0  0  0
  7 55  1  0  0  0  0
  8  9  1  0  0  0  0
  8 56  1  0  0  0  0
  8 57  1  0  0  0  0
  9 10  1  0  0  0  0
  9 47  1  0  0  0  0
  9 48  1  0  0  0  0
 10 11  1  0  0  0  0
 10 45  1  0  0  0  0
 10 46  1  0  0  0  0
 11 12  1  0  0  0  0
 11 43  1  0  0  0  0
 11 44  1  0  0  0  0
 12 13  1  0  0  0  0
 12 41  1  0  0  0  0
 12 42  1  0  0  0  0
 13 14  1  0  0  0  0
 13 39  1  0  0  0  0
 13 40  1  0  0  0  0
 14 15  1  0  0  0  0
 14 37  1  0  0  0  0
 14 38  1  0  0  0  0
 15 16  1  0  0  0  0
 15 35  1  0  0  0  0
 15 36  1  0  0  0  0
 16 17  1  0  0  0  0
 16 33  1  0  0  0  0
 16 34  1  0  0  0  0
 17 18  1  0  0  0  0
 17 31  1  0  0  0  0
 17 32  1  0  0  0  0
 18 19  1  0  0  0  0
 18 29  1  0  0  0  0
 18 30  1  0  0  0  0
 19 20  1  0  0  0  0
 19 24  1  0  0  0  0
 19 28  1  0  0  0  0
 20 21  1  0  0  0  0
 20 22  1  0  0  0  0
 20 23  1  0  0  0  0
 24 25  1  0  0  0  0
 24 26  1  0  0  0  0
 24 27  1  0  0  0  0
 49 58  1  0  0  0  0
M  END
