
 OpenBabel10072620113D

 52 56  0  0  0  0  0  0  0  0999 V2000
    1.0274    1.1133   -2.4426 C   0  0  0  0  0  0  0  0  0  0  0  0
    0.5508    0.2822   -1.4333 C   0  0  0  0  0  0  0  0  0  0  0  0
   -0.8239    0.0852   -1.2789 C   0  0  0  0  0  0  0  0  0  0  0  0
   -1.7407    0.7326   -2.1191 C   0  0  0  0  0  0  0  0  0  0  0  0
   -1.2451    1.5502   -3.1436 C   0  0  0  0  0  0  0  0  0  0  0  0
    0.1304    1.7423   -3.3023 C   0  0  0  0  0  0  0  0  0  0  0  0
   -3.1988    0.5671   -1.9843 C   0  0  0  0  0  0  0  0  0  0  0  0
   -3.8087    0.3573   -0.8066 C   0  0  0  0  0  0  0  0  0  0  0  0
   -5.2614    0.2871   -0.6132 C   0  0  0  0  0  0  0  0  0  0  0  0
   -6.1344   -0.3198   -1.5159 C   0  0  0  0  0  0  0  0  0  0  0  0
   -7.4987   -0.3913   -1.2260 C   0  0  0  0  0  0  0  0  0  0  0  0
   -7.9861    0.1279   -0.0743 N   0  3  0  0  0  0  0  0  0  0  0  0
   -7.1494    0.7226    0.8099 C   0  0  0  0  0  0  0  0  0  0  0  0
   -5.7860    0.7993    0.5694 C   0  0  0  0  0  0  0  0  0  0  0  0
   -9.4373   -0.0045    0.2741 C   0  0  0  0  0  0  0  0  0  0  0  0
   -9.5451   -0.9368    1.4823 C   0  0  0  0  0  0  0  0  0  0  0  0
   -8.6899   -1.8303    1.5425 O   0  0  0  0  0  0  0  0  0  0  0  0
  -10.6450   -0.8158    2.3514 N   0  0  0  0  0  0  0  0  0  0  0  0
  -11.4529    0.3756    2.4980 C   0  0  0  0  0  0  0  0  0  0  0  0
  -10.8393    1.6398    2.5275 C   0  0  0  0  0  0  0  0  0  0  0  0
  -11.5849    2.8152    2.6756 C   0  0  0  0  0  0  0  0  0  0  0  0
  -12.9655    2.7481    2.8174 C   0  0  0  0  0  0  0  0  0  0  0  0
  -13.5916    1.5066    2.8753 C   0  0  0  0  0  0  0  0  0  0  0  0
  -12.8395    0.3275    2.7450 C   0  0  0  0  0  0  0  0  0  0  0  0
  -13.6851   -1.2171    2.9219 S   0  0  0  0  0  0  0  0  0  0  0  0
  -12.3320   -2.1404    3.6264 C   0  0  0  0  0  0  0  0  0  0  0  0
  -12.6542   -3.1961    4.4923 C   0  0  0  0  0  0  0  0  0  0  0  0
  -11.6598   -4.0326    4.9948 C   0  0  0  0  0  0  0  0  0  0  0  0
  -10.3356   -3.8149    4.6420 C   0  0  0  0  0  0  0  0  0  0  0  0
  -10.0072   -2.7567    3.7871 C   0  0  0  0  0  0  0  0  0  0  0  0
  -10.9934   -1.9000    3.2524 C   0  0  0  0  0  0  0  0  0  0  0  0
    2.0972    1.2653   -2.5627 H   0  0  0  0  0  0  0  0  0  0  0  0
    1.2500   -0.2161   -0.7660 H   0  0  0  0  0  0  0  0  0  0  0  0
   -1.1602   -0.5863   -0.4942 H   0  0  0  0  0  0  0  0  0  0  0  0
   -1.9219    2.0598   -3.8253 H   0  0  0  0  0  0  0  0  0  0  0  0
    0.5027    2.3859   -4.0955 H   0  0  0  0  0  0  0  0  0  0  0  0
   -3.7700    0.6947   -2.8990 H   0  0  0  0  0  0  0  0  0  0  0  0
   -3.2129    0.2953    0.1027 H   0  0  0  0  0  0  0  0  0  0  0  0
   -5.7604   -0.7642   -2.4367 H   0  0  0  0  0  0  0  0  0  0  0  0
   -8.1986   -0.8614   -1.9119 H   0  0  0  0  0  0  0  0  0  0  0  0
   -7.5763    1.1221    1.7234 H   0  0  0  0  0  0  0  0  0  0  0  0
   -5.1350    1.2566    1.3142 H   0  0  0  0  0  0  0  0  0  0  0  0
   -9.9587   -0.4727   -0.5677 H   0  0  0  0  0  0  0  0  0  0  0  0
   -9.8086    1.0084    0.4033 H   0  0  0  0  0  0  0  0  0  0  0  0
   -9.7601    1.7418    2.5139 H   0  0  0  0  0  0  0  0  0  0  0  0
  -11.0875    3.7836    2.7164 H   0  0  0  0  0  0  0  0  0  0  0  0
  -13.5510    3.6583    2.9349 H   0  0  0  0  0  0  0  0  0  0  0  0
  -14.6674    1.4685    3.0531 H   0  0  0  0  0  0  0  0  0  0  0  0
  -13.6903   -3.3901    4.7642 H   0  0  0  0  0  0  0  0  0  0  0  0
  -11.9252   -4.8629    5.6457 H   0  0  0  0  0  0  0  0  0  0  0  0
   -9.5559   -4.4658    5.0369 H   0  0  0  0  0  0  0  0  0  0  0  0
   -8.9473   -2.6199    3.5903 H   0  0  0  0  0  0  0  0  0  0  0  0
  1  2  2  0  0  0  0
  1  6  1  0  0  0  0
  1 32  1  0  0  0  0
  2  3  1  0  0  0  0
  2 33  1  0  0  0  0
  3  4  2  0  0  0  0
  3 34  1  0  0  0  0
  4  5  1  0  0  0  0
  4  7  1  0  0  0  0
  5  6  2  0  0  0  0
  5 35  1  0  0  0  0
  6 36  1  0  0  0  0
  7  8  2  0  0  0  0
  7 37  1  0  0  0  0
  8  9  1  0  0  0  0
  8 38  1  0  0  0  0
  9 10  2  0  0  0  0
  9 14  1  0  0  0  0
 10 11  1  0  0  0  0
 10 39  1  0  0  0  0
 11 12  2  0  0  0  0
 11 40  1  0  0  0  0
 12 13  1  0  0  0  0
 12 15  1  0  0  0  0
 13 14  2  0  0  0  0
 13 41  1  0  0  0  0
 14 42  1  0  0  0  0
 15 16  1  0  0  0  0
 15 43  1  0  0  0  0
 15 44  1  0  0  0  0
 16 17  2  0  0  0  0
 16 18  1  0  0  0  0
 18 19  1  0  0  0  0
 18 31  1  0  0  0  0
 19 20  2  0  0  0  0
 19 24  1  0  0  0  0
 20 21  1  0  0  0  0
 20 45  1  0  0  0  0
 21 22  2  0  0  0  0
 21 46  1  0  0  0  0
 22 23  1  0  0  0  0
 22 47  1  0  0  0  0
 23 24  2  0  0  0  0
 23 48  1  0  0  0  0
 24 25  1  0  0  0  0
 25 26  1  0  0  0  0
 26 27  2  0  0  0  0
 26 31  1  0  0  0  0
 27 28  1  0  0  0  0
 27 49  1  0  0  0  0
 28 29  2  0  0  0  0
 28 50  1  0  0  0  0
 29 30  1  0  0  0  0
 29 51  1  0  0  0  0
 30 31  2  0  0  0  0
 30 52  1  0  0  0  0
M  CHG  1  12   1
M  END
