
 OpenBabel10072619583D

 37 38  0  0  0  0  0  0  0  0999 V2000
    0.8397   -0.1166   -0.1811 C   0  0  0  0  0  0  0  0  0  0  0  0
    2.3021   -0.0971   -0.0778 N   0  0  0  0  0  0  0  0  0  0  0  0
    2.8658    0.8159    0.9216 C   0  0  0  0  0  0  0  0  0  0  0  0
    3.1044   -0.8130   -0.9474 C   0  0  0  0  0  0  0  0  0  0  0  0
    2.5737   -1.7035   -1.8854 C   0  0  0  0  0  0  0  0  0  0  0  0
    3.3947   -2.4528   -2.7235 C   0  0  0  0  0  0  0  0  0  0  0  0
    4.7418   -2.3479   -2.6467 N   0  3  0  0  0  0  0  0  0  0  0  0
    5.2964   -1.4619   -1.7872 C   0  0  0  0  0  0  0  0  0  0  0  0
    4.4982   -0.7042   -0.9337 C   0  0  0  0  0  0  0  0  0  0  0  0
    5.6079   -3.1785   -3.5309 C   0  0  0  0  0  0  0  0  0  0  0  0
    5.8725   -4.6019   -3.0051 C   0  0  0  0  0  0  0  0  0  0  0  0
    5.6121   -4.9443   -1.7248 C   0  0  0  0  0  0  0  0  0  0  0  0
    6.4032   -5.5944   -3.8977 N   0  3  0  0  0  0  0  0  0  0  0  0
    7.2428   -5.2431   -4.9151 C   0  0  0  0  0  0  0  0  0  0  0  0
    7.7690   -6.1902   -5.7897 C   0  0  0  0  0  0  0  0  0  0  0  0
    7.4372   -7.5251   -5.6375 C   0  0  0  0  0  0  0  0  0  0  0  0
    6.5814   -7.8892   -4.6138 C   0  0  0  0  0  0  0  0  0  0  0  0
    6.0765   -6.9155   -3.7592 C   0  0  0  0  0  0  0  0  0  0  0  0
    0.3637    0.5222    0.5704 H   0  0  0  0  0  0  0  0  0  0  0  0
    0.4562   -1.1304   -0.0218 H   0  0  0  0  0  0  0  0  0  0  0  0
    0.5159    0.2454   -1.1632 H   0  0  0  0  0  0  0  0  0  0  0  0
    2.0936    1.2470    1.5679 H   0  0  0  0  0  0  0  0  0  0  0  0
    3.3869    1.6475    0.4346 H   0  0  0  0  0  0  0  0  0  0  0  0
    3.5623    0.2834    1.5792 H   0  0  0  0  0  0  0  0  0  0  0  0
    1.4978   -1.8396   -1.9772 H   0  0  0  0  0  0  0  0  0  0  0  0
    2.9720   -3.1478   -3.4440 H   0  0  0  0  0  0  0  0  0  0  0  0
    6.3790   -1.3685   -1.7663 H   0  0  0  0  0  0  0  0  0  0  0  0
    4.9966   -0.0210   -0.2489 H   0  0  0  0  0  0  0  0  0  0  0  0
    6.5519   -2.6383   -3.6645 H   0  0  0  0  0  0  0  0  0  0  0  0
    5.1018   -3.2225   -4.5032 H   0  0  0  0  0  0  0  0  0  0  0  0
    5.2094   -4.2497   -0.9911 H   0  0  0  0  0  0  0  0  0  0  0  0
    5.8362   -5.9219   -1.3024 H   0  0  0  0  0  0  0  0  0  0  0  0
    7.5436   -4.2050   -5.0194 H   0  0  0  0  0  0  0  0  0  0  0  0
    8.4503   -5.8906   -6.5854 H   0  0  0  0  0  0  0  0  0  0  0  0
    7.8442   -8.2790   -6.3122 H   0  0  0  0  0  0  0  0  0  0  0  0
    6.3042   -8.9346   -4.4812 H   0  0  0  0  0  0  0  0  0  0  0  0
    5.3748   -7.2062   -2.9810 H   0  0  0  0  0  0  0  0  0  0  0  0
  1  2  1  0  0  0  0
  1 19  1  0  0  0  0
  1 20  1  0  0  0  0
  1 21  1  0  0  0  0
  2  3  1  0  0  0  0
  2  4  1  0  0  0  0
  3 22  1  0  0  0  0
  3 23  1  0  0  0  0
  3 24  1  0  0  0  0
  4  5  2  0  0  0  0
  4  9  1  0  0  0  0
  5  6  1  0  0  0  0
  5 25  1  0  0  0  0
  6  7  2  0  0  0  0
  6 26  1  0  0  0  0
  7  8  1  0  0  0  0
  7 10  1  0  0  0  0
  8  9  2  0  0  0  0
  8 27  1  0  0  0  0
  9 28  1  0  0  0  0
 10 11  1  0  0  0  0
 10 29  1  0  0  0  0
 10 30  1  0  0  0  0
 11 12  2  0  0  0  0
 11 13  1  0  0  0  0
 12 31  1  0  0  0  0
 12 32  1  0  0  0  0
 13 14  2  0  0  0  0
 13 18  1  0  0  0  0
 14 15  1  0  0  0  0
 14 33  1  0  0  0  0
 15 16  2  0  0  0  0
 15 34  1  0  0  0  0
 16 17  1  0  0  0  0
 16 35  1  0  0  0  0
 17 18  2  0  0  0  0
 17 36  1  0  0  0  0
 18 37  1  0  0  0  0
M  CHG  2   7   1  13   1
M  END
