
 OpenBabel10072620013D

 41 42  0  0  0  0  0  0  0  0999 V2000
   -3.8480   -2.0188   -6.2622 C   0  0  0  0  0  0  0  0  0  0  0  0
   -3.8703   -1.6621   -4.8044 C   0  0  0  0  0  0  0  0  0  0  0  0
   -3.2632   -0.4856   -4.3427 C   0  0  0  0  0  0  0  0  0  0  0  0
   -3.2570   -0.1807   -2.9794 C   0  0  0  0  0  0  0  0  0  0  0  0
   -3.8543   -1.0619   -2.0745 C   0  0  0  0  0  0  0  0  0  0  0  0
   -4.4521   -2.2433   -2.5201 C   0  0  0  0  0  0  0  0  0  0  0  0
   -4.4558   -2.5410   -3.8830 C   0  0  0  0  0  0  0  0  0  0  0  0
   -3.8290   -0.6880   -0.3402 S   0  0  0  0  0  0  0  0  0  0  0  0
   -4.6439   -1.6585    0.3548 O   0  0  0  0  0  0  0  0  0  0  0  0
   -2.4444   -0.4682    0.0166 O   0  0  0  0  0  0  0  0  0  0  0  0
   -4.5660    0.8114   -0.2506 N   0  0  0  0  0  0  0  0  0  0  0  0
   -6.0293    1.0476   -0.1498 C   0  0  0  0  0  0  0  0  0  0  0  0
   -6.7969    0.2846   -1.2379 C   0  0  0  0  0  0  0  0  0  0  0  0
   -6.5429    0.6330    1.2387 C   0  0  0  0  0  0  0  0  0  0  0  0
   -6.2785    2.5684   -0.3856 C   0  0  0  0  0  0  0  0  0  0  0  0
   -5.3873    3.6572    0.7909 S   0  0  0  0  0  0  0  0  0  0  0  0
   -6.1746    5.1996    0.4108 C   0  0  0  0  0  0  0  0  0  0  0  0
   -6.2613    6.0905    1.4112 N   0  0  0  0  0  0  0  0  0  0  0  0
   -6.8540    7.2622    1.1189 C   0  0  0  0  0  0  0  0  0  0  0  0
   -7.3518    7.5699   -0.1236 C   0  0  0  0  0  0  0  0  0  0  0  0
   -7.2128    6.5892   -1.0750 C   0  0  0  0  0  0  0  0  0  0  0  0
   -6.6329    5.3979   -0.8371 N   0  0  0  0  0  0  0  0  0  0  0  0
   -3.6596   -1.1388   -6.8861 H   0  0  0  0  0  0  0  0  0  0  0  0
   -4.8137   -2.4352   -6.5684 H   0  0  0  0  0  0  0  0  0  0  0  0
   -3.0635   -2.7581   -6.4524 H   0  0  0  0  0  0  0  0  0  0  0  0
   -2.7860    0.1973   -5.0428 H   0  0  0  0  0  0  0  0  0  0  0  0
   -2.7813    0.7325   -2.6296 H   0  0  0  0  0  0  0  0  0  0  0  0
   -4.9105   -2.9361   -1.8184 H   0  0  0  0  0  0  0  0  0  0  0  0
   -4.9111   -3.4683   -4.2256 H   0  0  0  0  0  0  0  0  0  0  0  0
   -3.9717    1.5000    0.2186 H   0  0  0  0  0  0  0  0  0  0  0  0
   -6.7469   -0.7989   -1.0904 H   0  0  0  0  0  0  0  0  0  0  0  0
   -6.4045    0.5105   -2.2362 H   0  0  0  0  0  0  0  0  0  0  0  0
   -7.8589    0.5582   -1.2289 H   0  0  0  0  0  0  0  0  0  0  0  0
   -6.5610   -0.4546    1.3599 H   0  0  0  0  0  0  0  0  0  0  0  0
   -7.5698    0.9853    1.3930 H   0  0  0  0  0  0  0  0  0  0  0  0
   -5.9187    1.0333    2.0453 H   0  0  0  0  0  0  0  0  0  0  0  0
   -7.3524    2.7765   -0.3077 H   0  0  0  0  0  0  0  0  0  0  0  0
   -5.9538    2.8393   -1.3980 H   0  0  0  0  0  0  0  0  0  0  0  0
   -6.9168    7.9673    1.9422 H   0  0  0  0  0  0  0  0  0  0  0  0
   -7.8200    8.5204   -0.3383 H   0  0  0  0  0  0  0  0  0  0  0  0
   -7.5734    6.7343   -2.0890 H   0  0  0  0  0  0  0  0  0  0  0  0
  1  2  1  0  0  0  0
  1 23  1  0  0  0  0
  1 24  1  0  0  0  0
  1 25  1  0  0  0  0
  2  3  2  0  0  0  0
  2  7  1  0  0  0  0
  3  4  1  0  0  0  0
  3 26  1  0  0  0  0
  4  5  2  0  0  0  0
  4 27  1  0  0  0  0
  5  6  1  0  0  0  0
  5  8  1  0  0  0  0
  6  7  2  0  0  0  0
  6 28  1  0  0  0  0
  7 29  1  0  0  0  0
  8  9  2  0  0  0  0
  8 10  2  0  0  0  0
  8 11  1  0  0  0  0
 11 12  1  0  0  0  0
 11 30  1  0  0  0  0
 12 13  1  0  0  0  0
 12 14  1  0  0  0  0
 12 15  1  0  0  0  0
 13 31  1  0  0  0  0
 13 32  1  0  0  0  0
 13 33  1  0  0  0  0
 14 34  1  0  0  0  0
 14 35  1  0  0  0  0
 14 36  1  0  0  0  0
 15 16  1  0  0  0  0
 15 37  1  0  0  0  0
 15 38  1  0  0  0  0
 16 17  1  0  0  0  0
 17 18  2  0  0  0  0
 17 22  1  0  0  0  0
 18 19  1  0  0  0  0
 19 20  2  0  0  0  0
 19 39  1  0  0  0  0
 20 21  1  0  0  0  0
 20 40  1  0  0  0  0
 21 22  2  0  0  0  0
 21 41  1  0  0  0  0
M  END
