
 OpenBabel10072619503D

 57 58  0  0  1  0  0  0  0  0999 V2000
    2.1880   -5.8817    7.2510 C   0  0  0  0  0  0  0  0  0  0  0  0
    2.5168   -4.8879    6.1844 C   0  0  0  0  0  0  0  0  0  0  0  0
    3.7507   -4.4061    5.9656 C   0  0  0  0  0  0  0  0  0  0  0  0
    4.0977   -3.4117    4.9001 C   0  0  0  0  0  0  0  0  0  0  0  0
    5.1027   -4.0037    4.0196 N   0  0  0  0  0  0  0  0  0  0  0  0
    5.4777   -3.0725    2.9500 C   0  0  0  0  0  0  0  0  0  0  0  0
    6.6742   -3.5660    2.1075 C   0  0  3  0  0  0  0  0  0  0  0  0
    6.4547   -4.9392    1.4558 C   0  0  0  0  0  0  0  0  0  0  0  0
    5.2897   -4.8678    0.6230 O   0  0  0  0  0  0  0  0  0  0  0  0
    4.8974   -6.0231    0.0071 C   0  0  0  0  0  0  0  0  0  0  0  0
    5.5167   -7.2661    0.1180 C   0  0  0  0  0  0  0  0  0  0  0  0
    4.9992   -8.3798   -0.5594 C   0  0  0  0  0  0  0  0  0  0  0  0
    3.8644   -8.2627   -1.3625 C   0  0  0  0  0  0  0  0  0  0  0  0
    3.2497   -7.0113   -1.4765 C   0  0  0  0  0  0  0  0  0  0  0  0
    3.7627   -5.9025   -0.7954 C   0  0  0  0  0  0  0  0  0  0  0  0
    3.2813   -9.3360   -2.0644 N   0  0  0  0  0  0  0  0  0  0  0  0
    3.7190  -10.6416   -2.1267 C   0  0  0  0  0  0  0  0  0  0  0  0
    4.7412  -11.0980   -1.6337 O   0  0  0  0  0  0  0  0  0  0  0  0
    2.8339  -11.4168   -2.8557 N   0  0  0  0  0  0  0  0  0  0  0  0
    3.0314  -12.8569   -2.9779 C   0  0  0  0  0  0  0  0  0  0  0  0
    2.3320  -13.3778   -4.2386 C   0  0  0  0  0  0  0  0  0  0  0  0
    2.4569  -14.8939   -4.3670 C   0  0  0  0  0  0  0  0  0  0  0  0
    1.9417  -15.6063   -3.1203 C   0  0  0  0  0  0  0  0  0  0  0  0
    2.6289  -15.0967   -1.8576 C   0  0  0  0  0  0  0  0  0  0  0  0
    2.5162  -13.5806   -1.7254 C   0  0  0  0  0  0  0  0  0  0  0  0
    6.9335   -2.5987    1.0765 O   0  0  0  0  0  0  0  0  0  0  0  0
    1.4660   -5.4510    7.9516 H   0  0  0  0  0  0  0  0  0  0  0  0
    3.0724   -6.1910    7.8173 H   0  0  0  0  0  0  0  0  0  0  0  0
    1.7422   -6.7745    6.8018 H   0  0  0  0  0  0  0  0  0  0  0  0
    1.6875   -4.5567    5.5631 H   0  0  0  0  0  0  0  0  0  0  0  0
    4.5776   -4.7354    6.5923 H   0  0  0  0  0  0  0  0  0  0  0  0
    4.4981   -2.5136    5.3846 H   0  0  0  0  0  0  0  0  0  0  0  0
    3.2074   -3.1220    4.3292 H   0  0  0  0  0  0  0  0  0  0  0  0
    4.6880   -4.8375    3.5999 H   0  0  0  0  0  0  0  0  0  0  0  0
    5.7552   -2.0996    3.3770 H   0  0  0  0  0  0  0  0  0  0  0  0
    4.6176   -2.8778    2.2962 H   0  0  0  0  0  0  0  0  0  0  0  0
    7.5700   -3.6099    2.7378 H   0  0  0  0  0  0  0  0  0  0  0  0
    6.3314   -5.7042    2.2301 H   0  0  0  0  0  0  0  0  0  0  0  0
    7.3216   -5.1786    0.8284 H   0  0  0  0  0  0  0  0  0  0  0  0
    6.4051   -7.4164    0.7226 H   0  0  0  0  0  0  0  0  0  0  0  0
    5.5136   -9.3285   -0.4374 H   0  0  0  0  0  0  0  0  0  0  0  0
    2.3624   -6.8785   -2.0898 H   0  0  0  0  0  0  0  0  0  0  0  0
    3.2689   -4.9387   -0.8908 H   0  0  0  0  0  0  0  0  0  0  0  0
    2.4948   -9.1133   -2.6540 H   0  0  0  0  0  0  0  0  0  0  0  0
    1.8771  -11.0997   -2.8623 H   0  0  0  0  0  0  0  0  0  0  0  0
    4.1088  -13.0444   -3.0735 H   0  0  0  0  0  0  0  0  0  0  0  0
    2.7589  -12.8984   -5.1282 H   0  0  0  0  0  0  0  0  0  0  0  0
    1.2691  -13.1027   -4.2182 H   0  0  0  0  0  0  0  0  0  0  0  0
    3.5072  -15.1621   -4.5342 H   0  0  0  0  0  0  0  0  0  0  0  0
    1.8973  -15.2370   -5.2443 H   0  0  0  0  0  0  0  0  0  0  0  0
    2.1022  -16.6860   -3.2178 H   0  0  0  0  0  0  0  0  0  0  0  0
    0.8595  -15.4501   -3.0339 H   0  0  0  0  0  0  0  0  0  0  0  0
    3.6873  -15.3834   -1.8757 H   0  0  0  0  0  0  0  0  0  0  0  0
    2.1841  -15.5762   -0.9784 H   0  0  0  0  0  0  0  0  0  0  0  0
    3.0718  -13.2512   -0.8394 H   0  0  0  0  0  0  0  0  0  0  0  0
    1.4667  -13.3105   -1.5483 H   0  0  0  0  0  0  0  0  0  0  0  0
    6.2500   -2.7398    0.3939 H   0  0  0  0  0  0  0  0  0  0  0  0
  1  2  1  0  0  0  0
  1 27  1  0  0  0  0
  1 28  1  0  0  0  0
  1 29  1  0  0  0  0
  2  3  2  0  0  0  0
  2 30  1  0  0  0  0
  3  4  1  0  0  0  0
  3 31  1  0  0  0  0
  4  5  1  0  0  0  0
  4 32  1  0  0  0  0
  4 33  1  0  0  0  0
  5  6  1  0  0  0  0
  5 34  1  0  0  0  0
  6  7  1  0  0  0  0
  6 35  1  0  0  0  0
  6 36  1  0  0  0  0
  7  8  1  0  0  0  0
  7 26  1  0  0  0  0
  7 37  1  0  0  0  0
  8  9  1  0  0  0  0
  8 38  1  0  0  0  0
  8 39  1  0  0  0  0
  9 10  1  0  0  0  0
 10 11  2  0  0  0  0
 10 15  1  0  0  0  0
 11 12  1  0  0  0  0
 11 40  1  0  0  0  0
 12 13  2  0  0  0  0
 12 41  1  0  0  0  0
 13 14  1  0  0  0  0
 13 16  1  0  0  0  0
 14 15  2  0  0  0  0
 14 42  1  0  0  0  0
 15 43  1  0  0  0  0
 16 17  1  0  0  0  0
 16 44  1  0  0  0  0
 17 18  2  0  0  0  0
 17 19  1  0  0  0  0
 19 20  1  0  0  0  0
 19 45  1  0  0  0  0
 20 21  1  0  0  0  0
 20 25  1  0  0  0  0
 20 46  1  0  0  0  0
 21 22  1  0  0  0  0
 21 47  1  0  0  0  0
 21 48  1  0  0  0  0
 22 23  1  0  0  0  0
 22 49  1  0  0  0  0
 22 50  1  0  0  0  0
 23 24  1  0  0  0  0
 23 51  1  0  0  0  0
 23 52  1  0  0  0  0
 24 25  1  0  0  0  0
 24 53  1  0  0  0  0
 24 54  1  0  0  0  0
 25 55  1  0  0  0  0
 25 56  1  0  0  0  0
 26 57  1  0  0  0  0
M  END
