
 OpenBabel10072616313D

 31 32  0  0  0  0  0  0  0  0999 V2000
    0.9756    0.6674   -0.2272 C   0  0  0  0  0  0  0  0  0  0  0  0
   -0.3210    0.8673   -0.6159 C   0  0  0  0  0  0  0  0  0  0  0  0
   -0.9950   -0.3052   -0.6176 O   0  0  0  0  0  0  0  0  0  0  0  0
   -0.1373   -1.3206   -0.2357 C   0  0  0  0  0  0  0  0  0  0  0  0
    1.0936   -0.7228    0.0225 C   0  0  0  0  0  0  0  0  0  0  0  0
   -0.6155   -2.6621   -0.1661 C   0  0  0  0  0  0  0  0  0  0  0  0
    0.1040   -3.7977   -0.0490 C   0  0  0  0  0  0  0  0  0  0  0  0
    1.5298   -3.8173   -0.0018 C   0  0  0  0  0  0  0  0  0  0  0  0
    2.6891   -3.8575    0.0373 N   0  0  0  0  0  0  0  0  0  0  0  0
   -0.5467   -5.0911   -0.0759 C   0  0  0  0  0  0  0  0  0  0  0  0
   -1.5462   -5.3676   -0.9318 N   0  0  0  0  0  0  0  0  0  0  0  0
   -1.8789   -6.6466   -0.6722 N   0  0  0  0  0  0  0  0  0  0  0  0
   -1.1147   -7.2230    0.3141 C   0  0  0  0  0  0  0  0  0  0  0  0
   -0.2687   -6.2215    0.7472 C   0  0  0  0  0  0  0  0  0  0  0  0
    0.6683   -6.3383    1.8157 C   0  0  0  0  0  0  0  0  0  0  0  0
    1.4160   -6.4320    2.6982 N   0  0  0  0  0  0  0  0  0  0  0  0
   -1.2651   -8.5117    0.6944 N   0  0  0  0  0  0  0  0  0  0  0  0
   -2.9635   -7.2543   -1.4240 C   0  0  0  0  0  0  0  0  0  0  0  0
   -2.4474   -8.1042   -2.5754 C   0  0  0  0  0  0  0  0  0  0  0  0
   -1.8645   -9.3192   -2.1024 O   0  0  0  0  0  0  0  0  0  0  0  0
    1.7425    1.4226   -0.1290 H   0  0  0  0  0  0  0  0  0  0  0  0
   -0.8909    1.7383   -0.9078 H   0  0  0  0  0  0  0  0  0  0  0  0
    1.9958   -1.2137    0.3593 H   0  0  0  0  0  0  0  0  0  0  0  0
   -1.6986   -2.7518   -0.2519 H   0  0  0  0  0  0  0  0  0  0  0  0
   -1.8173   -9.1861    0.1576 H   0  0  0  0  0  0  0  0  0  0  0  0
   -0.6319   -8.9609    1.3563 H   0  0  0  0  0  0  0  0  0  0  0  0
   -3.5896   -6.4404   -1.8057 H   0  0  0  0  0  0  0  0  0  0  0  0
   -3.5596   -7.8449   -0.7204 H   0  0  0  0  0  0  0  0  0  0  0  0
   -1.7136   -7.5717   -3.1900 H   0  0  0  0  0  0  0  0  0  0  0  0
   -3.2867   -8.3847   -3.2185 H   0  0  0  0  0  0  0  0  0  0  0  0
   -0.9157   -9.1411   -1.9564 H   0  0  0  0  0  0  0  0  0  0  0  0
  1  2  2  0  0  0  0
  1  5  1  0  0  0  0
  1 21  1  0  0  0  0
  2  3  1  0  0  0  0
  2 22  1  0  0  0  0
  3  4  1  0  0  0  0
  4  5  2  0  0  0  0
  4  6  1  0  0  0  0
  5 23  1  0  0  0  0
  6  7  2  0  0  0  0
  6 24  1  0  0  0  0
  7  8  1  0  0  0  0
  7 10  1  0  0  0  0
  8  9  3  0  0  0  0
 10 11  2  0  0  0  0
 10 14  1  0  0  0  0
 11 12  1  0  0  0  0
 12 13  1  0  0  0  0
 12 18  1  0  0  0  0
 13 14  2  0  0  0  0
 13 17  1  0  0  0  0
 14 15  1  0  0  0  0
 15 16  3  0  0  0  0
 17 25  1  0  0  0  0
 17 26  1  0  0  0  0
 18 19  1  0  0  0  0
 18 27  1  0  0  0  0
 18 28  1  0  0  0  0
 19 20  1  0  0  0  0
 19 29  1  0  0  0  0
 19 30  1  0  0  0  0
 20 31  1  0  0  0  0
M  END
