
 OpenBabel10072619523D

 42 44  0  0  0  0  0  0  0  0999 V2000
    1.4001    0.9460    0.0521 C   0  0  0  0  0  0  0  0  0  0  0  0
    0.9659   -0.3049    0.4822 C   0  0  0  0  0  0  0  0  0  0  0  0
   -0.3663   -0.6902    0.3017 C   0  0  0  0  0  0  0  0  0  0  0  0
   -1.2787    0.1760   -0.3034 C   0  0  0  0  0  0  0  0  0  0  0  0
   -0.8313    1.4320   -0.7356 C   0  0  0  0  0  0  0  0  0  0  0  0
    0.5009    1.8160   -0.5577 C   0  0  0  0  0  0  0  0  0  0  0  0
   -2.6352   -0.1402   -0.5309 N   0  0  0  0  0  0  0  0  0  0  0  0
   -3.3266   -1.2621   -0.0927 C   0  0  0  0  0  0  0  0  0  0  0  0
   -2.8722   -2.1226    0.6494 O   0  0  0  0  0  0  0  0  0  0  0  0
   -4.6092   -1.2708   -0.6254 N   0  0  0  0  0  0  0  0  0  0  0  0
   -5.6432   -2.1914   -0.3502 C   0  0  0  0  0  0  0  0  0  0  0  0
   -5.5921   -3.1330    0.6765 C   0  0  0  0  0  0  0  0  0  0  0  0
   -6.6567   -4.0172    0.8831 C   0  0  0  0  0  0  0  0  0  0  0  0
   -7.7914   -3.9817    0.0630 C   0  0  0  0  0  0  0  0  0  0  0  0
   -7.8533   -3.0215   -0.9531 C   0  0  0  0  0  0  0  0  0  0  0  0
   -6.7887   -2.1346   -1.1546 C   0  0  0  0  0  0  0  0  0  0  0  0
   -8.9194   -4.9568    0.2871 C   0  0  0  0  0  0  0  0  0  0  0  0
  -10.0579   -4.3808    1.5859 S   0  0  0  0  0  0  0  0  0  0  0  0
  -11.0195   -5.8674    1.7860 C   0  0  0  0  0  0  0  0  0  0  0  0
  -10.8263   -6.6713    2.9129 C   0  0  0  0  0  0  0  0  0  0  0  0
  -11.5782   -7.8361    3.0841 C   0  0  0  0  0  0  0  0  0  0  0  0
  -12.5302   -8.1977    2.1325 C   0  0  0  0  0  0  0  0  0  0  0  0
  -12.7318   -7.3963    1.0097 C   0  0  0  0  0  0  0  0  0  0  0  0
  -11.9808   -6.2307    0.8386 C   0  0  0  0  0  0  0  0  0  0  0  0
    2.4368    1.2398    0.1922 H   0  0  0  0  0  0  0  0  0  0  0  0
    1.6623   -0.9899    0.9588 H   0  0  0  0  0  0  0  0  0  0  0  0
   -0.6549   -1.6801    0.6413 H   0  0  0  0  0  0  0  0  0  0  0  0
   -1.5105    2.1298   -1.2174 H   0  0  0  0  0  0  0  0  0  0  0  0
    0.8358    2.7927   -0.8963 H   0  0  0  0  0  0  0  0  0  0  0  0
   -3.1915    0.5849   -0.9552 H   0  0  0  0  0  0  0  0  0  0  0  0
   -4.7713   -0.6480   -1.4002 H   0  0  0  0  0  0  0  0  0  0  0  0
   -4.7398   -3.2057    1.3446 H   0  0  0  0  0  0  0  0  0  0  0  0
   -6.5893   -4.7370    1.6963 H   0  0  0  0  0  0  0  0  0  0  0  0
   -8.7273   -2.9582   -1.5980 H   0  0  0  0  0  0  0  0  0  0  0  0
   -6.8686   -1.4073   -1.9582 H   0  0  0  0  0  0  0  0  0  0  0  0
   -8.5007   -5.9310    0.5663 H   0  0  0  0  0  0  0  0  0  0  0  0
   -9.4763   -5.1076   -0.6444 H   0  0  0  0  0  0  0  0  0  0  0  0
  -10.0920   -6.3970    3.6665 H   0  0  0  0  0  0  0  0  0  0  0  0
  -11.4229   -8.4569    3.9626 H   0  0  0  0  0  0  0  0  0  0  0  0
  -13.1220   -9.0994    2.2716 H   0  0  0  0  0  0  0  0  0  0  0  0
  -13.4792   -7.6741    0.2711 H   0  0  0  0  0  0  0  0  0  0  0  0
  -12.1613   -5.6062   -0.0324 H   0  0  0  0  0  0  0  0  0  0  0  0
  1  2  2  0  0  0  0
  1  6  1  0  0  0  0
  1 25  1  0  0  0  0
  2  3  1  0  0  0  0
  2 26  1  0  0  0  0
  3  4  2  0  0  0  0
  3 27  1  0  0  0  0
  4  5  1  0  0  0  0
  4  7  1  0  0  0  0
  5  6  2  0  0  0  0
  5 28  1  0  0  0  0
  6 29  1  0  0  0  0
  7  8  1  0  0  0  0
  7 30  1  0  0  0  0
  8  9  2  0  0  0  0
  8 10  1  0  0  0  0
 10 11  1  0  0  0  0
 10 31  1  0  0  0  0
 11 12  2  0  0  0  0
 11 16  1  0  0  0  0
 12 13  1  0  0  0  0
 12 32  1  0  0  0  0
 13 14  2  0  0  0  0
 13 33  1  0  0  0  0
 14 15  1  0  0  0  0
 14 17  1  0  0  0  0
 15 16  2  0  0  0  0
 15 34  1  0  0  0  0
 16 35  1  0  0  0  0
 17 18  1  0  0  0  0
 17 36  1  0  0  0  0
 17 37  1  0  0  0  0
 18 19  1  0  0  0  0
 19 20  2  0  0  0  0
 19 24  1  0  0  0  0
 20 21  1  0  0  0  0
 20 38  1  0  0  0  0
 21 22  2  0  0  0  0
 21 39  1  0  0  0  0
 22 23  1  0  0  0  0
 22 40  1  0  0  0  0
 23 24  2  0  0  0  0
 23 41  1  0  0  0  0
 24 42  1  0  0  0  0
M  END
