
 OpenBabel10072620213D

 52 53  0  0  0  0  0  0  0  0999 V2000
    9.8497   -3.7471   -7.0154 C   0  0  0  0  0  0  0  0  0  0  0  0
    8.6290   -4.4152   -6.5370 N   0  0  0  0  0  0  0  0  0  0  0  0
    8.8990   -5.5287   -5.6124 C   0  0  0  0  0  0  0  0  0  0  0  0
    7.2912   -3.4242   -6.1883 S   0  0  0  0  0  0  0  0  0  0  0  0
    7.1631   -2.4452   -7.2468 O   0  0  0  0  0  0  0  0  0  0  0  0
    6.1781   -4.2756   -5.8230 O   0  0  0  0  0  0  0  0  0  0  0  0
    7.8023   -2.5540   -4.7194 C   0  0  0  0  0  0  0  0  0  0  0  0
    8.4549   -1.3241   -4.8337 C   0  0  0  0  0  0  0  0  0  0  0  0
    8.8346   -0.6280   -3.6808 C   0  0  0  0  0  0  0  0  0  0  0  0
    8.5541   -1.1544   -2.4177 C   0  0  0  0  0  0  0  0  0  0  0  0
    7.8729   -2.3719   -2.3180 C   0  0  0  0  0  0  0  0  0  0  0  0
    7.4888   -3.0731   -3.4622 C   0  0  0  0  0  0  0  0  0  0  0  0
    8.8744   -0.5912   -1.2144 O   0  0  0  0  0  0  0  0  0  0  0  0
    9.6504    0.6069   -1.2028 C   0  0  0  0  0  0  0  0  0  0  0  0
   11.1407    0.3043   -1.3477 C   0  0  0  0  0  0  0  0  0  0  0  0
   11.8667    1.5318   -1.3105 O   0  0  0  0  0  0  0  0  0  0  0  0
   13.2301    1.4448   -1.3845 C   0  0  0  0  0  0  0  0  0  0  0  0
   13.9658    0.2829   -1.6336 C   0  0  0  0  0  0  0  0  0  0  0  0
   15.3616    0.3361   -1.6954 C   0  0  0  0  0  0  0  0  0  0  0  0
   16.0175    1.5553   -1.5095 C   0  0  0  0  0  0  0  0  0  0  0  0
   15.2941    2.7193   -1.2473 C   0  0  0  0  0  0  0  0  0  0  0  0
   13.9003    2.6581   -1.1947 C   0  0  0  0  0  0  0  0  0  0  0  0
   17.7916    1.5974   -1.5701 S   0  0  0  0  0  0  0  0  0  0  0  0
   18.2364    2.9140   -1.1645 O   0  0  0  0  0  0  0  0  0  0  0  0
   18.2704    0.4056   -0.9018 O   0  0  0  0  0  0  0  0  0  0  0  0
   18.1167    1.4370   -3.2462 N   0  0  0  0  0  0  0  0  0  0  0  0
   17.6670    2.5752   -4.0802 C   0  0  0  0  0  0  0  0  0  0  0  0
   19.5329    1.0967   -3.5199 C   0  0  0  0  0  0  0  0  0  0  0  0
   10.5000   -4.4778   -7.5071 H   0  0  0  0  0  0  0  0  0  0  0  0
   10.4017   -3.2965   -6.1864 H   0  0  0  0  0  0  0  0  0  0  0  0
    9.6196   -2.9801   -7.7595 H   0  0  0  0  0  0  0  0  0  0  0  0
    9.5601   -6.2549   -6.0970 H   0  0  0  0  0  0  0  0  0  0  0  0
    7.9811   -6.0619   -5.3510 H   0  0  0  0  0  0  0  0  0  0  0  0
    9.3877   -5.1729   -4.7011 H   0  0  0  0  0  0  0  0  0  0  0  0
    8.6649   -0.8979   -5.8128 H   0  0  0  0  0  0  0  0  0  0  0  0
    9.3416    0.3222   -3.8113 H   0  0  0  0  0  0  0  0  0  0  0  0
    7.6358   -2.7738   -1.3349 H   0  0  0  0  0  0  0  0  0  0  0  0
    6.9472   -4.0104   -3.3620 H   0  0  0  0  0  0  0  0  0  0  0  0
    9.4882    1.0830   -0.2279 H   0  0  0  0  0  0  0  0  0  0  0  0
    9.2937    1.3448   -1.9307 H   0  0  0  0  0  0  0  0  0  0  0  0
   11.3225   -0.2145   -2.2951 H   0  0  0  0  0  0  0  0  0  0  0  0
   11.4522   -0.3529   -0.5263 H   0  0  0  0  0  0  0  0  0  0  0  0
   13.4876   -0.6789   -1.7868 H   0  0  0  0  0  0  0  0  0  0  0  0
   15.9312   -0.5718   -1.8846 H   0  0  0  0  0  0  0  0  0  0  0  0
   15.7986    3.6684   -1.0851 H   0  0  0  0  0  0  0  0  0  0  0  0
   13.3293    3.5627   -0.9960 H   0  0  0  0  0  0  0  0  0  0  0  0
   16.5919    2.7381   -3.9754 H   0  0  0  0  0  0  0  0  0  0  0  0
   17.8507    2.3555   -5.1372 H   0  0  0  0  0  0  0  0  0  0  0  0
   18.2053    3.4921   -3.8224 H   0  0  0  0  0  0  0  0  0  0  0  0
   19.7995    0.1516   -3.0380 H   0  0  0  0  0  0  0  0  0  0  0  0
   20.2008    1.8907   -3.1717 H   0  0  0  0  0  0  0  0  0  0  0  0
   19.6844    0.9614   -4.5961 H   0  0  0  0  0  0  0  0  0  0  0  0
  1  2  1  0  0  0  0
  1 29  1  0  0  0  0
  1 30  1  0  0  0  0
  1 31  1  0  0  0  0
  2  3  1  0  0  0  0
  2  4  1  0  0  0  0
  3 32  1  0  0  0  0
  3 33  1  0  0  0  0
  3 34  1  0  0  0  0
  4  5  2  0  0  0  0
  4  6  2  0  0  0  0
  4  7  1  0  0  0  0
  7  8  2  0  0  0  0
  7 12  1  0  0  0  0
  8  9  1  0  0  0  0
  8 35  1  0  0  0  0
  9 10  2  0  0  0  0
  9 36  1  0  0  0  0
 10 11  1  0  0  0  0
 10 13  1  0  0  0  0
 11 12  2  0  0  0  0
 11 37  1  0  0  0  0
 12 38  1  0  0  0  0
 13 14  1  0  0  0  0
 14 15  1  0  0  0  0
 14 39  1  0  0  0  0
 14 40  1  0  0  0  0
 15 16  1  0  0  0  0
 15 41  1  0  0  0  0
 15 42  1  0  0  0  0
 16 17  1  0  0  0  0
 17 18  2  0  0  0  0
 17 22  1  0  0  0  0
 18 19  1  0  0  0  0
 18 43  1  0  0  0  0
 19 20  2  0  0  0  0
 19 44  1  0  0  0  0
 20 21  1  0  0  0  0
 20 23  1  0  0  0  0
 21 22  2  0  0  0  0
 21 45  1  0  0  0  0
 22 46  1  0  0  0  0
 23 24  2  0  0  0  0
 23 25  2  0  0  0  0
 23 26  1  0  0  0  0
 26 27  1  0  0  0  0
 26 28  1  0  0  0  0
 27 47  1  0  0  0  0
 27 48  1  0  0  0  0
 27 49  1  0  0  0  0
 28 50  1  0  0  0  0
 28 51  1  0  0  0  0
 28 52  1  0  0  0  0
M  END
