
 OpenBabel10072620183D

 35 36  0  0  1  0  0  0  0  0999 V2000
    1.5064   -0.3874    0.7040 C   0  0  0  0  0  0  0  0  0  0  0  0
    3.0140   -0.3291    0.8445 C   0  0  0  0  0  0  0  0  0  0  0  0
    3.4442    0.9407    1.3913 N   0  0  0  0  0  0  0  0  0  0  0  0
    4.7814    1.2607    1.3898 C   0  0  0  0  0  0  0  0  0  0  0  0
    5.6634    0.5692    0.8937 O   0  0  0  0  0  0  0  0  0  0  0  0
    5.0187    2.4575    2.0332 N   0  0  0  0  0  0  0  0  0  0  0  0
    6.3256    2.9620    1.9783 N   0  0  0  0  0  0  0  0  0  0  0  0
    6.5299    4.2993    2.2458 C   0  0  0  0  0  0  0  0  0  0  0  0
    5.5971    5.0884    2.4009 O   0  0  0  0  0  0  0  0  0  0  0  0
    7.9965    4.7193    2.2308 C   0  0  3  0  0  0  0  0  0  0  0  0
    8.2289    6.0263    2.9515 C   0  0  0  0  0  0  0  0  0  0  0  0
    9.4159    5.6491    3.7625 C   0  0  0  0  0  0  0  0  0  0  0  0
    9.7321    4.3952    3.7246 N   0  0  0  0  0  0  0  0  0  0  0  0
    8.7918    3.7399    2.9019 O   0  0  0  0  0  0  0  0  0  0  0  0
   10.1525    6.6434    4.5658 C   0  0  0  0  0  0  0  0  0  0  0  0
   11.2677    6.2483    5.2951 C   0  0  0  0  0  0  0  0  0  0  0  0
   11.9993    7.0874    6.0704 N   0  0  0  0  0  0  0  0  0  0  0  0
   11.5978    8.3750    6.1214 C   0  0  0  0  0  0  0  0  0  0  0  0
   10.5011    8.8644    5.4301 C   0  0  0  0  0  0  0  0  0  0  0  0
    9.7649    7.9824    4.6400 C   0  0  0  0  0  0  0  0  0  0  0  0
    1.1971   -1.3470    0.2793 H   0  0  0  0  0  0  0  0  0  0  0  0
    1.1449    0.4108    0.0482 H   0  0  0  0  0  0  0  0  0  0  0  0
    1.0166   -0.2682    1.6760 H   0  0  0  0  0  0  0  0  0  0  0  0
    3.4897   -0.4737   -0.1315 H   0  0  0  0  0  0  0  0  0  0  0  0
    3.3681   -1.1216    1.5124 H   0  0  0  0  0  0  0  0  0  0  0  0
    2.9411    1.2832    2.1978 H   0  0  0  0  0  0  0  0  0  0  0  0
    4.2910    3.1681    1.9944 H   0  0  0  0  0  0  0  0  0  0  0  0
    7.0846    2.2819    1.9230 H   0  0  0  0  0  0  0  0  0  0  0  0
    8.3270    4.7753    1.1874 H   0  0  0  0  0  0  0  0  0  0  0  0
    7.4092    6.3215    3.6130 H   0  0  0  0  0  0  0  0  0  0  0  0
    8.4521    6.8376    2.2536 H   0  0  0  0  0  0  0  0  0  0  0  0
   11.6203    5.2195    5.2841 H   0  0  0  0  0  0  0  0  0  0  0  0
   12.1975    9.0235    6.7543 H   0  0  0  0  0  0  0  0  0  0  0  0
   10.2230    9.9099    5.5083 H   0  0  0  0  0  0  0  0  0  0  0  0
    8.8994    8.3581    4.1034 H   0  0  0  0  0  0  0  0  0  0  0  0
  1  2  1  0  0  0  0
  1 21  1  0  0  0  0
  1 22  1  0  0  0  0
  1 23  1  0  0  0  0
  2  3  1  0  0  0  0
  2 24  1  0  0  0  0
  2 25  1  0  0  0  0
  3  4  1  0  0  0  0
  3 26  1  0  0  0  0
  4  5  2  0  0  0  0
  4  6  1  0  0  0  0
  6  7  1  0  0  0  0
  6 27  1  0  0  0  0
  7  8  1  0  0  0  0
  7 28  1  0  0  0  0
  8  9  2  0  0  0  0
  8 10  1  0  0  0  0
 10 11  1  0  0  0  0
 10 14  1  0  0  0  0
 10 29  1  0  0  0  0
 11 12  1  0  0  0  0
 11 30  1  0  0  0  0
 11 31  1  0  0  0  0
 12 13  2  0  0  0  0
 12 15  1  0  0  0  0
 13 14  1  0  0  0  0
 15 16  2  0  0  0  0
 15 20  1  0  0  0  0
 16 17  1  0  0  0  0
 16 32  1  0  0  0  0
 17 18  2  0  0  0  0
 18 19  1  0  0  0  0
 18 33  1  0  0  0  0
 19 20  2  0  0  0  0
 19 34  1  0  0  0  0
 20 35  1  0  0  0  0
M  END
