
 OpenBabel10072620073D

 94 99  0  0  1  0  0  0  0  0999 V2000
   -0.3446   -6.9698    3.4678 C   0  0  0  0  0  0  0  0  0  0  0  0
    0.9025   -7.4492    4.2021 C   0  0  0  0  0  0  0  0  0  0  0  0
    0.9262   -6.9209    5.6113 N   0  3  0  0  0  0  0  0  0  0  0  0
    0.0390   -7.4673    6.5124 C   0  0  0  0  0  0  0  0  0  0  0  0
   -0.8978   -8.4681    6.1465 C   0  0  0  0  0  0  0  0  0  0  0  0
   -1.8667   -8.9737    7.0092 C   0  0  0  0  0  0  0  0  0  0  0  0
   -1.9046   -8.5013    8.3007 C   0  0  0  0  0  0  0  0  0  0  0  0
   -0.9611   -7.5671    8.7185 C   0  0  0  0  0  0  0  0  0  0  0  0
    0.0328   -7.0443    7.8562 C   0  0  0  0  0  0  0  0  0  0  0  0
    1.0118   -6.1221    8.2980 C   0  0  0  0  0  0  0  0  0  0  0  0
    1.1492   -5.7999    9.6672 C   0  0  0  0  0  0  0  0  0  0  0  0
    2.0937   -4.8914   10.1350 C   0  0  0  0  0  0  0  0  0  0  0  0
    2.9314   -4.2513    9.2466 C   0  0  0  0  0  0  0  0  0  0  0  0
    2.7940   -4.5377    7.8779 C   0  0  0  0  0  0  0  0  0  0  0  0
    1.8812   -5.5265    7.3750 C   0  0  0  0  0  0  0  0  0  0  0  0
    1.8264   -5.9472    6.0030 C   0  0  0  0  0  0  0  0  0  0  0  0
    2.8093   -5.4280    5.0110 C   0  0  0  0  0  0  0  0  0  0  0  0
    4.1968   -5.5795    5.2565 C   0  0  0  0  0  0  0  0  0  0  0  0
    5.1643   -5.0201    4.4240 C   0  0  0  0  0  0  0  0  0  0  0  0
    4.7513   -4.3950    3.2560 C   0  0  0  0  0  0  0  0  0  0  0  0
    3.3940   -4.2488    2.9607 C   0  0  0  0  0  0  0  0  0  0  0  0
    2.4286   -4.7177    3.8578 C   0  0  0  0  0  0  0  0  0  0  0  0
    3.9499   -3.3626    9.6420 N   0  0  0  0  0  0  0  0  0  0  0  0
    4.3040   -3.0290   10.9370 C   0  0  0  0  0  0  0  0  0  0  0  0
    3.7556   -3.3794   11.9670 O   0  0  0  0  0  0  0  0  0  0  0  0
    5.4291   -2.2320   10.9290 N   0  0  0  0  0  0  0  0  0  0  0  0
    5.8963   -1.6122   12.1705 C   0  0  1  0  0  0  0  0  0  0  0  0
    6.4787   -2.6048   13.2100 C   0  0  0  0  0  0  0  0  0  0  0  0
    7.0500   -1.8354   14.4164 C   0  0  2  0  0  0  0  0  0  0  0  0
    8.1545   -0.8608   13.9540 C   0  0  1  0  0  0  0  0  0  0  0  0
    7.5938    0.1297   12.9409 C   0  0  2  0  0  0  0  0  0  0  0  0
    6.9480   -0.5697   11.7656 C   0  0  2  0  0  0  0  0  0  0  0  0
    6.3796    0.4410   10.9165 O   0  0  0  0  0  0  0  0  0  0  0  0
    8.6448    0.9421   12.3832 O   0  0  0  0  0  0  0  0  0  0  0  0
    8.6870   -0.0891   15.0365 O   0  0  0  0  0  0  0  0  0  0  0  0
    7.5637   -2.7122   15.4726 N   0  0  0  0  0  0  0  0  0  0  0  0
   -2.8366   -9.9153    6.6188 N   0  0  0  0  0  0  0  0  0  0  0  0
   -2.9160  -10.5771    5.4148 C   0  0  0  0  0  0  0  0  0  0  0  0
   -2.0522  -10.5493    4.5382 O   0  0  0  0  0  0  0  0  0  0  0  0
   -4.1010  -11.2612    5.2963 N   0  0  0  0  0  0  0  0  0  0  0  0
   -4.4523  -12.0245    4.0880 C   0  0  2  0  0  0  0  0  0  0  0  0
   -4.2887  -11.2528    2.7581 C   0  0  0  0  0  0  0  0  0  0  0  0
   -5.3904  -10.2248    2.4656 C   0  0  1  0  0  0  0  0  0  0  0  0
   -6.7868  -10.8729    2.6092 C   0  0  2  0  0  0  0  0  0  0  0  0
   -6.9807  -11.5578    3.9797 C   0  0  1  0  0  0  0  0  0  0  0  0
   -5.8833  -12.6118    4.2219 C   0  0  1  0  0  0  0  0  0  0  0  0
   -6.0482  -13.7352    3.3543 O   0  0  0  0  0  0  0  0  0  0  0  0
   -6.9931  -10.6013    5.0470 O   0  0  0  0  0  0  0  0  0  0  0  0
   -6.9587  -11.8557    1.5761 O   0  0  0  0  0  0  0  0  0  0  0  0
   -5.2307   -9.0281    3.3048 N   0  0  0  0  0  0  0  0  0  0  0  0
   -0.2191   -7.0458    2.3872 H   0  0  0  0  0  0  0  0  0  0  0  0
   -0.5802   -5.9383    3.7298 H   0  0  0  0  0  0  0  0  0  0  0  0
   -1.2408   -7.5578    3.6798 H   0  0  0  0  0  0  0  0  0  0  0  0
    1.7954   -7.1545    3.6599 H   0  0  0  0  0  0  0  0  0  0  0  0
    0.9793   -8.5375    4.2636 H   0  0  0  0  0  0  0  0  0  0  0  0
   -0.9108   -8.8716    5.1481 H   0  0  0  0  0  0  0  0  0  0  0  0
   -2.6424   -8.8515    9.0158 H   0  0  0  0  0  0  0  0  0  0  0  0
   -1.0523   -7.2526    9.7554 H   0  0  0  0  0  0  0  0  0  0  0  0
    0.5446   -6.2755   10.4334 H   0  0  0  0  0  0  0  0  0  0  0  0
    2.1217   -4.7215   11.2086 H   0  0  0  0  0  0  0  0  0  0  0  0
    3.4253   -3.9833    7.1841 H   0  0  0  0  0  0  0  0  0  0  0  0
    4.5534   -6.1070    6.1413 H   0  0  0  0  0  0  0  0  0  0  0  0
    6.2215   -5.0856    4.6884 H   0  0  0  0  0  0  0  0  0  0  0  0
    5.5004   -4.0138    2.5666 H   0  0  0  0  0  0  0  0  0  0  0  0
    3.0910   -3.7558    2.0359 H   0  0  0  0  0  0  0  0  0  0  0  0
    1.3841   -4.5272    3.6230 H   0  0  0  0  0  0  0  0  0  0  0  0
    4.5684   -3.0097    8.9272 H   0  0  0  0  0  0  0  0  0  0  0  0
    5.4147   -1.5524   10.1760 H   0  0  0  0  0  0  0  0  0  0  0  0
    5.0120   -1.1222   12.5997 H   0  0  0  0  0  0  0  0  0  0  0  0
    7.2631   -3.2217   12.7501 H   0  0  0  0  0  0  0  0  0  0  0  0
    5.7101   -3.3068   13.5566 H   0  0  0  0  0  0  0  0  0  0  0  0
    6.2428   -1.2539   14.8787 H   0  0  0  0  0  0  0  0  0  0  0  0
    8.9986   -1.4081   13.5142 H   0  0  0  0  0  0  0  0  0  0  0  0
    6.8815    0.8115   13.4237 H   0  0  0  0  0  0  0  0  0  0  0  0
    7.7167   -1.0463   11.1467 H   0  0  0  0  0  0  0  0  0  0  0  0
    7.1117    1.0869   10.8145 H   0  0  0  0  0  0  0  0  0  0  0  0
    9.4094    0.8436   12.9811 H   0  0  0  0  0  0  0  0  0  0  0  0
    8.1157   -0.2486   15.8111 H   0  0  0  0  0  0  0  0  0  0  0  0
    8.3899   -3.2235   15.1604 H   0  0  0  0  0  0  0  0  0  0  0  0
    6.8674   -3.4139   15.7257 H   0  0  0  0  0  0  0  0  0  0  0  0
   -3.5544  -10.1386    7.2909 H   0  0  0  0  0  0  0  0  0  0  0  0
   -4.4023  -11.6943    6.1577 H   0  0  0  0  0  0  0  0  0  0  0  0
   -3.7399  -12.8574    4.0686 H   0  0  0  0  0  0  0  0  0  0  0  0
   -4.2722  -11.9848    1.9390 H   0  0  0  0  0  0  0  0  0  0  0  0
   -3.3175  -10.7580    2.6824 H   0  0  0  0  0  0  0  0  0  0  0  0
   -5.2537   -9.9069    1.4239 H   0  0  0  0  0  0  0  0  0  0  0  0
   -7.5623  -10.1140    2.4613 H   0  0  0  0  0  0  0  0  0  0  0  0
   -7.9576  -12.0582    3.9846 H   0  0  0  0  0  0  0  0  0  0  0  0
   -5.9995  -12.9979    5.2419 H   0  0  0  0  0  0  0  0  0  0  0  0
   -6.4008  -13.4062    2.4981 H   0  0  0  0  0  0  0  0  0  0  0  0
   -7.3021  -11.0747    5.8396 H   0  0  0  0  0  0  0  0  0  0  0  0
   -7.2751  -11.3836    0.7830 H   0  0  0  0  0  0  0  0  0  0  0  0
   -5.4813   -9.2872    4.2677 H   0  0  0  0  0  0  0  0  0  0  0  0
   -5.9364   -8.3415    3.0393 H   0  0  0  0  0  0  0  0  0  0  0  0
  1  2  1  0  0  0  0
  1 51  1  0  0  0  0
  1 52  1  0  0  0  0
  1 53  1  0  0  0  0
  2  3  1  0  0  0  0
  2 54  1  0  0  0  0
  2 55  1  0  0  0  0
  3  4  2  0  0  0  0
  3 16  1  0  0  0  0
  4  5  1  0  0  0  0
  4  9  1  0  0  0  0
  5  6  2  0  0  0  0
  5 56  1  0  0  0  0
  6  7  1  0  0  0  0
  6 37  1  0  0  0  0
  7  8  2  0  0  0  0
  7 57  1  0  0  0  0
  8  9  1  0  0  0  0
  8 58  1  0  0  0  0
  9 10  2  0  0  0  0
 10 11  1  0  0  0  0
 10 15  1  0  0  0  0
 11 12  2  0  0  0  0
 11 59  1  0  0  0  0
 12 13  1  0  0  0  0
 12 60  1  0  0  0  0
 13 14  2  0  0  0  0
 13 23  1  0  0  0  0
 14 15  1  0  0  0  0
 14 61  1  0  0  0  0
 15 16  2  0  0  0  0
 16 17  1  0  0  0  0
 17 18  2  0  0  0  0
 17 22  1  0  0  0  0
 18 19  1  0  0  0  0
 18 62  1  0  0  0  0
 19 20  2  0  0  0  0
 19 63  1  0  0  0  0
 20 21  1  0  0  0  0
 20 64  1  0  0  0  0
 21 22  2  0  0  0  0
 21 65  1  0  0  0  0
 22 66  1  0  0  0  0
 23 24  1  0  0  0  0
 23 67  1  0  0  0  0
 24 25  2  0  0  0  0
 24 26  1  0  0  0  0
 26 68  1  0  0  0  0
 27 28  1  0  0  0  0
 27 32  1  0  0  0  0
 27 26  1  0  0  0  0
 27 69  1  1  0  0  0
 28 29  1  0  0  0  0
 28 70  1  0  0  0  0
 28 71  1  0  0  0  0
 29 30  1  0  0  0  0
 29 36  1  0  0  0  0
 29 72  1  1  0  0  0
 30 31  1  0  0  0  0
 30 35  1  0  0  0  0
 30 73  1  6  0  0  0
 31 32  1  0  0  0  0
 31 34  1  0  0  0  0
 31 74  1  1  0  0  0
 32 33  1  0  0  0  0
 32 75  1  6  0  0  0
 33 76  1  0  0  0  0
 34 77  1  0  0  0  0
 35 78  1  0  0  0  0
 36 79  1  0  0  0  0
 36 80  1  0  0  0  0
 37 38  1  0  0  0  0
 37 81  1  0  0  0  0
 38 39  2  0  0  0  0
 38 40  1  0  0  0  0
 40 41  1  0  0  0  0
 40 82  1  0  0  0  0
 41 42  1  0  0  0  0
 41 46  1  0  0  0  0
 41 83  1  6  0  0  0
 42 43  1  0  0  0  0
 42 84  1  0  0  0  0
 42 85  1  0  0  0  0
 43 44  1  0  0  0  0
 43 50  1  0  0  0  0
 43 86  1  6  0  0  0
 44 45  1  0  0  0  0
 44 49  1  0  0  0  0
 44 87  1  6  0  0  0
 45 46  1  0  0  0  0
 45 48  1  0  0  0  0
 45 88  1  6  0  0  0
 46 47  1  0  0  0  0
 46 89  1  1  0  0  0
 47 90  1  0  0  0  0
 48 91  1  0  0  0  0
 49 92  1  0  0  0  0
 50 93  1  0  0  0  0
 50 94  1  0  0  0  0
M  CHG  1   3   1
M  END
