
 OpenBabel10072620173D

 48 50  0  0  0  0  0  0  0  0999 V2000
   -7.6757   -0.8157    2.6514 C   0  0  0  0  0  0  0  0  0  0  0  0
   -6.3805   -1.1450    1.9636 C   0  0  0  0  0  0  0  0  0  0  0  0
   -5.1966   -1.2625    2.6943 C   0  0  0  0  0  0  0  0  0  0  0  0
   -3.9584   -1.4972    2.0632 C   0  0  0  0  0  0  0  0  0  0  0  0
   -3.9213   -1.6480    0.6506 C   0  0  0  0  0  0  0  0  0  0  0  0
   -5.1137   -1.5060   -0.1047 C   0  0  0  0  0  0  0  0  0  0  0  0
   -6.3257   -1.2527    0.5720 C   0  0  0  0  0  0  0  0  0  0  0  0
   -5.1831   -1.5911   -1.6064 C   0  0  0  0  0  0  0  0  0  0  0  0
   -2.3329   -1.9672   -0.1591 S   0  0  0  0  0  0  0  0  0  0  0  0
   -2.5331   -2.3161   -1.5501 O   0  0  0  0  0  0  0  0  0  0  0  0
   -1.4584   -0.8680    0.1858 O   0  0  0  0  0  0  0  0  0  0  0  0
   -1.7397   -3.3172    0.6044 N   0  0  0  0  0  0  0  0  0  0  0  0
   -2.4921   -4.5034    0.6778 C   0  0  0  0  0  0  0  0  0  0  0  0
   -2.2610   -5.3130    1.6860 N   0  0  0  0  0  0  0  0  0  0  0  0
   -3.0870   -6.4168    1.6652 N   0  0  0  0  0  0  0  0  0  0  0  0
   -3.8602   -6.4393    0.5989 C   0  0  0  0  0  0  0  0  0  0  0  0
   -3.6709   -5.0715   -0.4189 S   0  0  0  0  0  0  0  0  0  0  0  0
   -4.8642   -7.5044    0.2865 C   0  0  0  0  0  0  0  0  0  0  0  0
   -4.2575   -8.8878    0.3090 C   0  0  0  0  0  0  0  0  0  0  0  0
   -4.2708   -9.6416    1.4888 C   0  0  0  0  0  0  0  0  0  0  0  0
   -3.6482  -10.8914    1.5484 C   0  0  0  0  0  0  0  0  0  0  0  0
   -2.9745  -11.3907    0.4359 C   0  0  0  0  0  0  0  0  0  0  0  0
   -2.9908  -10.6612   -0.7525 C   0  0  0  0  0  0  0  0  0  0  0  0
   -3.6186   -9.4143   -0.8179 C   0  0  0  0  0  0  0  0  0  0  0  0
   -2.2767  -12.5663    0.3938 O   0  0  0  0  0  0  0  0  0  0  0  0
   -1.8744  -13.0909    1.6553 C   0  0  0  0  0  0  0  0  0  0  0  0
   -2.7560   -1.6072    2.9662 C   0  0  0  0  0  0  0  0  0  0  0  0
   -7.6827   -1.1959    3.6790 H   0  0  0  0  0  0  0  0  0  0  0  0
   -8.5238   -1.2708    2.1275 H   0  0  0  0  0  0  0  0  0  0  0  0
   -7.8200    0.2703    2.6793 H   0  0  0  0  0  0  0  0  0  0  0  0
   -5.2369   -1.1661    3.7802 H   0  0  0  0  0  0  0  0  0  0  0  0
   -7.2501   -1.1375    0.0040 H   0  0  0  0  0  0  0  0  0  0  0  0
   -4.5372   -0.8372   -2.0656 H   0  0  0  0  0  0  0  0  0  0  0  0
   -6.1960   -1.3953   -1.9752 H   0  0  0  0  0  0  0  0  0  0  0  0
   -4.9230   -2.5956   -1.9501 H   0  0  0  0  0  0  0  0  0  0  0  0
   -1.0557   -3.1684    1.3389 H   0  0  0  0  0  0  0  0  0  0  0  0
   -5.3454   -7.3362   -0.6855 H   0  0  0  0  0  0  0  0  0  0  0  0
   -5.6688   -7.4537    1.0323 H   0  0  0  0  0  0  0  0  0  0  0  0
   -4.7474   -9.2497    2.3847 H   0  0  0  0  0  0  0  0  0  0  0  0
   -3.6939  -11.4409    2.4810 H   0  0  0  0  0  0  0  0  0  0  0  0
   -2.4884  -11.0565   -1.6309 H   0  0  0  0  0  0  0  0  0  0  0  0
   -3.5806   -8.8530   -1.7477 H   0  0  0  0  0  0  0  0  0  0  0  0
   -1.1369  -13.8780    1.4721 H   0  0  0  0  0  0  0  0  0  0  0  0
   -2.7287  -13.5412    2.1709 H   0  0  0  0  0  0  0  0  0  0  0  0
   -1.3900  -12.3288    2.2771 H   0  0  0  0  0  0  0  0  0  0  0  0
   -2.9495   -1.1389    3.9385 H   0  0  0  0  0  0  0  0  0  0  0  0
   -1.8872   -1.0870    2.5604 H   0  0  0  0  0  0  0  0  0  0  0  0
   -2.5087   -2.6575    3.1465 H   0  0  0  0  0  0  0  0  0  0  0  0
  1  2  1  0  0  0  0
  1 28  1  0  0  0  0
  1 29  1  0  0  0  0
  1 30  1  0  0  0  0
  2  3  2  0  0  0  0
  2  7  1  0  0  0  0
  3  4  1  0  0  0  0
  3 31  1  0  0  0  0
  4  5  2  0  0  0  0
  4 27  1  0  0  0  0
  5  6  1  0  0  0  0
  5  9  1  0  0  0  0
  6  7  2  0  0  0  0
  6  8  1  0  0  0  0
  7 32  1  0  0  0  0
  8 33  1  0  0  0  0
  8 34  1  0  0  0  0
  8 35  1  0  0  0  0
  9 10  2  0  0  0  0
  9 11  2  0  0  0  0
  9 12  1  0  0  0  0
 12 13  1  0  0  0  0
 12 36  1  0  0  0  0
 13 14  2  0  0  0  0
 13 17  1  0  0  0  0
 14 15  1  0  0  0  0
 15 16  2  0  0  0  0
 16 17  1  0  0  0  0
 16 18  1  0  0  0  0
 18 19  1  0  0  0  0
 18 37  1  0  0  0  0
 18 38  1  0  0  0  0
 19 20  2  0  0  0  0
 19 24  1  0  0  0  0
 20 21  1  0  0  0  0
 20 39  1  0  0  0  0
 21 22  2  0  0  0  0
 21 40  1  0  0  0  0
 22 23  1  0  0  0  0
 22 25  1  0  0  0  0
 23 24  2  0  0  0  0
 23 41  1  0  0  0  0
 24 42  1  0  0  0  0
 25 26  1  0  0  0  0
 26 43  1  0  0  0  0
 26 44  1  0  0  0  0
 26 45  1  0  0  0  0
 27 46  1  0  0  0  0
 27 47  1  0  0  0  0
 27 48  1  0  0  0  0
M  END
