
 OpenBabel10072620093D

 42 43  0  0  0  0  0  0  0  0999 V2000
    1.3157   -0.4971    0.5205 C   0  0  0  0  0  0  0  0  0  0  0  0
    2.6820   -0.2161   -0.1481 C   0  0  0  0  0  0  0  0  0  0  0  0
    3.7967   -0.4320    0.8934 C   0  0  0  0  0  0  0  0  0  0  0  0
    2.8429   -1.2724   -1.2652 C   0  0  0  0  0  0  0  0  0  0  0  0
    2.7924    1.2275   -0.6687 C   0  0  0  0  0  0  0  0  0  0  0  0
    2.1907    2.2947    0.0204 C   0  0  0  0  0  0  0  0  0  0  0  0
    2.3070    3.6207   -0.4217 C   0  0  0  0  0  0  0  0  0  0  0  0
    3.0544    3.9307   -1.5509 C   0  0  0  0  0  0  0  0  0  0  0  0
    3.6575    2.8796   -2.2507 C   0  0  0  0  0  0  0  0  0  0  0  0
    3.5367    1.5541   -1.8113 C   0  0  0  0  0  0  0  0  0  0  0  0
    3.2051    5.2271   -2.0888 N   0  0  0  0  0  0  0  0  0  0  0  0
    3.0036    6.4718   -1.5460 C   0  0  0  0  0  0  0  0  0  0  0  0
    2.8632    6.9128    0.0582 S   0  0  0  0  0  0  0  0  0  0  0  0
    2.9363    7.4949   -2.4560 N   0  0  0  0  0  0  0  0  0  0  0  0
    2.7620    7.3926   -3.8943 C   0  0  0  0  0  0  0  0  0  0  0  0
    2.6907    8.7393   -4.5484 C   0  0  0  0  0  0  0  0  0  0  0  0
    1.6140    9.0882   -5.3569 C   0  0  0  0  0  0  0  0  0  0  0  0
    1.4937   10.2752   -5.9930 N   0  0  0  0  0  0  0  0  0  0  0  0
    2.4970   11.1610   -5.8191 C   0  0  0  0  0  0  0  0  0  0  0  0
    3.6161   10.9137   -5.0436 C   0  0  0  0  0  0  0  0  0  0  0  0
    3.7138    9.6822   -4.4035 C   0  0  0  0  0  0  0  0  0  0  0  0
    1.2229   -1.5533    0.8004 H   0  0  0  0  0  0  0  0  0  0  0  0
    0.4876   -0.2585   -0.1571 H   0  0  0  0  0  0  0  0  0  0  0  0
    1.1752    0.0776    1.4422 H   0  0  0  0  0  0  0  0  0  0  0  0
    3.7657   -1.4473    1.3039 H   0  0  0  0  0  0  0  0  0  0  0  0
    3.7040    0.2670    1.7329 H   0  0  0  0  0  0  0  0  0  0  0  0
    4.7895   -0.2818    0.4531 H   0  0  0  0  0  0  0  0  0  0  0  0
    2.6784   -2.2847   -0.8764 H   0  0  0  0  0  0  0  0  0  0  0  0
    3.8485   -1.2678   -1.6993 H   0  0  0  0  0  0  0  0  0  0  0  0
    2.1214   -1.1070   -2.0738 H   0  0  0  0  0  0  0  0  0  0  0  0
    1.6131    2.1236    0.9242 H   0  0  0  0  0  0  0  0  0  0  0  0
    1.7691    4.3780    0.1370 H   0  0  0  0  0  0  0  0  0  0  0  0
    4.2463    3.0741   -3.1432 H   0  0  0  0  0  0  0  0  0  0  0  0
    4.0522    0.7891   -2.3869 H   0  0  0  0  0  0  0  0  0  0  0  0
    3.6777    5.2437   -2.9813 H   0  0  0  0  0  0  0  0  0  0  0  0
    2.7042    8.3877   -2.0309 H   0  0  0  0  0  0  0  0  0  0  0  0
    1.8498    6.8117   -4.0722 H   0  0  0  0  0  0  0  0  0  0  0  0
    3.6012    6.8303   -4.3193 H   0  0  0  0  0  0  0  0  0  0  0  0
    0.7866    8.4044   -5.5269 H   0  0  0  0  0  0  0  0  0  0  0  0
    2.3758   12.1050   -6.3422 H   0  0  0  0  0  0  0  0  0  0  0  0
    4.3951   11.6612   -4.9410 H   0  0  0  0  0  0  0  0  0  0  0  0
    4.5863    9.4610   -3.7934 H   0  0  0  0  0  0  0  0  0  0  0  0
  1  2  1  0  0  0  0
  1 22  1  0  0  0  0
  1 23  1  0  0  0  0
  1 24  1  0  0  0  0
  2  3  1  0  0  0  0
  2  4  1  0  0  0  0
  2  5  1  0  0  0  0
  3 25  1  0  0  0  0
  3 26  1  0  0  0  0
  3 27  1  0  0  0  0
  4 28  1  0  0  0  0
  4 29  1  0  0  0  0
  4 30  1  0  0  0  0
  5  6  2  0  0  0  0
  5 10  1  0  0  0  0
  6  7  1  0  0  0  0
  6 31  1  0  0  0  0
  7  8  2  0  0  0  0
  7 32  1  0  0  0  0
  8  9  1  0  0  0  0
  8 11  1  0  0  0  0
  9 10  2  0  0  0  0
  9 33  1  0  0  0  0
 10 34  1  0  0  0  0
 11 12  1  0  0  0  0
 11 35  1  0  0  0  0
 12 13  2  0  0  0  0
 12 14  1  0  0  0  0
 14 15  1  0  0  0  0
 14 36  1  0  0  0  0
 15 16  1  0  0  0  0
 15 37  1  0  0  0  0
 15 38  1  0  0  0  0
 16 17  2  0  0  0  0
 16 21  1  0  0  0  0
 17 18  1  0  0  0  0
 17 39  1  0  0  0  0
 18 19  2  0  0  0  0
 19 20  1  0  0  0  0
 19 40  1  0  0  0  0
 20 21  2  0  0  0  0
 20 41  1  0  0  0  0
 21 42  1  0  0  0  0
M  END
