
 OpenBabel10072619483D

 85 90  0  0  1  0  0  0  0  0999 V2000
    5.0030    0.1382    1.5028 C   0  0  0  0  0  0  0  0  0  0  0  0
    4.5772    1.4990    0.9433 C   0  0  3  0  0  0  0  0  0  0  0  0
    5.1128    2.7213    1.6849 C   0  0  0  0  0  0  0  0  0  0  0  0
    6.3745    2.6677    2.3091 C   0  0  0  0  0  0  0  0  0  0  0  0
    6.9239    3.7952    2.9092 C   0  0  0  0  0  0  0  0  0  0  0  0
    6.2329    5.0014    2.8877 C   0  0  0  0  0  0  0  0  0  0  0  0
    4.9833    5.1032    2.2634 C   0  0  0  0  0  0  0  0  0  0  0  0
    4.3106    6.3374    2.2429 C   0  0  0  0  0  0  0  0  0  0  0  0
    3.0749    6.4764    1.6141 C   0  0  0  0  0  0  0  0  0  0  0  0
    2.4973    5.3818    0.9911 C   0  0  0  0  0  0  0  0  0  0  0  0
    3.1540    4.1492    1.0042 C   0  0  0  0  0  0  0  0  0  0  0  0
    4.4054    3.9656    1.6445 C   0  0  0  0  0  0  0  0  0  0  0  0
    4.9938    1.6339   -0.4420 N   0  0  0  0  0  0  0  0  0  0  0  0
    4.1731    1.4146   -1.5205 C   0  0  0  0  0  0  0  0  0  0  0  0
    3.0183    1.0079   -1.4091 O   0  0  0  0  0  0  0  0  0  0  0  0
    4.7426    1.7944   -2.8806 C   0  0  0  0  0  0  0  0  0  0  0  0
    6.1868    1.6464   -2.9727 N   0  0  0  0  0  0  0  0  0  0  0  0
    7.0596    2.7027   -3.0506 C   0  0  0  0  0  0  0  0  0  0  0  0
    8.2952    2.1625   -2.7879 C   0  0  0  0  0  0  0  0  0  0  0  0
    8.2051    0.7965   -2.6813 N   0  0  0  0  0  0  0  0  0  0  0  0
    6.9272    0.4904   -2.8078 C   0  0  0  0  0  0  0  0  0  0  0  0
    6.2905   -0.7765   -2.7387 C   0  0  0  0  0  0  0  0  0  0  0  0
    6.9450   -1.8349   -2.2345 C   0  0  0  0  0  0  0  0  0  0  0  0
    6.3342   -3.1631   -2.1034 C   0  0  0  0  0  0  0  0  0  0  0  0
    5.5196   -3.7097   -3.0993 C   0  0  0  0  0  0  0  0  0  0  0  0
    4.9496   -4.9774   -2.9373 C   0  0  0  0  0  0  0  0  0  0  0  0
    5.1970   -5.7484   -1.7901 C   0  0  0  0  0  0  0  0  0  0  0  0
    6.0419   -5.2006   -0.8114 C   0  0  0  0  0  0  0  0  0  0  0  0
    6.5999   -3.9252   -0.9630 C   0  0  0  0  0  0  0  0  0  0  0  0
    4.5956   -7.0861   -1.6243 C   0  0  0  0  0  0  0  0  0  0  0  0
    4.5441   -7.9973   -2.6926 C   0  0  0  0  0  0  0  0  0  0  0  0
    3.9820   -9.2712   -2.5430 C   0  0  0  0  0  0  0  0  0  0  0  0
    3.4628   -9.6638   -1.3128 C   0  0  0  0  0  0  0  0  0  0  0  0
    3.4934   -8.7689   -0.2444 C   0  0  0  0  0  0  0  0  0  0  0  0
    4.0496   -7.4951   -0.3977 C   0  0  0  0  0  0  0  0  0  0  0  0
    2.8689  -10.8648   -1.0453 O   0  0  0  0  0  0  0  0  0  0  0  0
    3.1748  -11.9409   -1.9323 C   0  0  0  0  0  0  0  0  0  0  0  0
    2.5304  -13.2085   -1.3795 C   0  0  0  0  0  0  0  0  0  0  0  0
    1.0036  -13.1180   -1.3922 C   0  0  0  0  0  0  0  0  0  0  0  0
    0.3726  -14.4128   -0.9423 C   0  0  0  0  0  0  0  0  0  0  0  0
    0.9780  -15.4391   -0.6771 O   0  0  0  0  0  0  0  0  0  0  0  0
   -0.9765  -14.3318   -0.8799 O   0  0  0  0  0  0  0  0  0  0  0  0
    9.5458    2.8852   -2.6713 C   0  0  0  0  0  0  0  0  0  0  0  0
    9.6990    4.0707   -1.9296 C   0  0  0  0  0  0  0  0  0  0  0  0
   10.9344    4.7259   -1.8953 C   0  0  0  0  0  0  0  0  0  0  0  0
   12.0248    4.1884   -2.5760 C   0  0  0  0  0  0  0  0  0  0  0  0
   11.8962    3.0067   -3.3015 C   0  0  0  0  0  0  0  0  0  0  0  0
   10.6619    2.3551   -3.3421 C   0  0  0  0  0  0  0  0  0  0  0  0
   13.5378    5.0081   -2.5323 Cl  0  0  0  0  0  0  0  0  0  0  0  0
    8.4225    4.7752   -0.9926 Cl  0  0  0  0  0  0  0  0  0  0  0  0
    4.7870    0.0736    2.5748 H   0  0  0  0  0  0  0  0  0  0  0  0
    6.0684   -0.0663    1.3477 H   0  0  0  0  0  0  0  0  0  0  0  0
    4.4505   -0.6663    1.0034 H   0  0  0  0  0  0  0  0  0  0  0  0
    3.4838    1.4916    0.9975 H   0  0  0  0  0  0  0  0  0  0  0  0
    6.9591    1.7509    2.3214 H   0  0  0  0  0  0  0  0  0  0  0  0
    7.8991    3.7382    3.3846 H   0  0  0  0  0  0  0  0  0  0  0  0
    6.6878    5.8716    3.3558 H   0  0  0  0  0  0  0  0  0  0  0  0
    4.7522    7.2126    2.7140 H   0  0  0  0  0  0  0  0  0  0  0  0
    2.5687    7.4378    1.6077 H   0  0  0  0  0  0  0  0  0  0  0  0
    1.5380    5.4791    0.4892 H   0  0  0  0  0  0  0  0  0  0  0  0
    2.6596    3.3283    0.4906 H   0  0  0  0  0  0  0  0  0  0  0  0
    5.9454    1.9539   -0.5834 H   0  0  0  0  0  0  0  0  0  0  0  0
    4.4856    2.8407   -3.0801 H   0  0  0  0  0  0  0  0  0  0  0  0
    4.2993    1.1713   -3.6614 H   0  0  0  0  0  0  0  0  0  0  0  0
    6.7301    3.7212   -3.2147 H   0  0  0  0  0  0  0  0  0  0  0  0
    5.2632   -0.8855   -3.0711 H   0  0  0  0  0  0  0  0  0  0  0  0
    7.9651   -1.7380   -1.8660 H   0  0  0  0  0  0  0  0  0  0  0  0
    5.3163   -3.1612   -4.0155 H   0  0  0  0  0  0  0  0  0  0  0  0
    4.2971   -5.3539   -3.7225 H   0  0  0  0  0  0  0  0  0  0  0  0
    6.2841   -5.7718    0.0828 H   0  0  0  0  0  0  0  0  0  0  0  0
    7.2357   -3.5331   -0.1726 H   0  0  0  0  0  0  0  0  0  0  0  0
    4.9599   -7.7234   -3.6605 H   0  0  0  0  0  0  0  0  0  0  0  0
    3.9651   -9.9228   -3.4095 H   0  0  0  0  0  0  0  0  0  0  0  0
    3.0931   -9.0683    0.7209 H   0  0  0  0  0  0  0  0  0  0  0  0
    4.0460   -6.8216    0.4567 H   0  0  0  0  0  0  0  0  0  0  0  0
    4.2610  -12.0845   -1.9884 H   0  0  0  0  0  0  0  0  0  0  0  0
    2.7768  -11.7424   -2.9348 H   0  0  0  0  0  0  0  0  0  0  0  0
    2.8659  -13.3738   -0.3477 H   0  0  0  0  0  0  0  0  0  0  0  0
    2.8604  -14.0691   -1.9731 H   0  0  0  0  0  0  0  0  0  0  0  0
    0.6529  -12.9048   -2.4081 H   0  0  0  0  0  0  0  0  0  0  0  0
    0.6681  -12.3182   -0.7228 H   0  0  0  0  0  0  0  0  0  0  0  0
   -1.3273  -13.4524   -1.1165 H   0  0  0  0  0  0  0  0  0  0  0  0
   11.0455    5.6523   -1.3372 H   0  0  0  0  0  0  0  0  0  0  0  0
   12.7427    2.5907   -3.8426 H   0  0  0  0  0  0  0  0  0  0  0  0
   10.5613    1.4328   -3.9144 H   0  0  0  0  0  0  0  0  0  0  0  0
  1  2  1  0  0  0  0
  1 51  1  0  0  0  0
  1 52  1  0  0  0  0
  1 53  1  0  0  0  0
  2  3  1  0  0  0  0
  2 13  1  0  0  0  0
  2 54  1  0  0  0  0
  3  4  2  0  0  0  0
  3 12  1  0  0  0  0
  4  5  1  0  0  0  0
  4 55  1  0  0  0  0
  5  6  2  0  0  0  0
  5 56  1  0  0  0  0
  6  7  1  0  0  0  0
  6 57  1  0  0  0  0
  7  8  2  0  0  0  0
  7 12  1  0  0  0  0
  8  9  1  0  0  0  0
  8 58  1  0  0  0  0
  9 10  2  0  0  0  0
  9 59  1  0  0  0  0
 10 11  1  0  0  0  0
 10 60  1  0  0  0  0
 11 12  2  0  0  0  0
 11 61  1  0  0  0  0
 13 14  1  0  0  0  0
 13 62  1  0  0  0  0
 14 15  2  0  0  0  0
 14 16  1  0  0  0  0
 16 17  1  0  0  0  0
 16 63  1  0  0  0  0
 16 64  1  0  0  0  0
 17 18  1  0  0  0  0
 17 21  1  0  0  0  0
 18 19  2  0  0  0  0
 18 65  1  0  0  0  0
 19 20  1  0  0  0  0
 19 43  1  0  0  0  0
 20 21  2  0  0  0  0
 21 22  1  0  0  0  0
 22 23  2  0  0  0  0
 22 66  1  0  0  0  0
 23 24  1  0  0  0  0
 23 67  1  0  0  0  0
 24 25  2  0  0  0  0
 24 29  1  0  0  0  0
 25 26  1  0  0  0  0
 25 68  1  0  0  0  0
 26 27  2  0  0  0  0
 26 69  1  0  0  0  0
 27 28  1  0  0  0  0
 27 30  1  0  0  0  0
 28 29  2  0  0  0  0
 28 70  1  0  0  0  0
 29 71  1  0  0  0  0
 30 31  2  0  0  0  0
 30 35  1  0  0  0  0
 31 32  1  0  0  0  0
 31 72  1  0  0  0  0
 32 33  2  0  0  0  0
 32 73  1  0  0  0  0
 33 34  1  0  0  0  0
 33 36  1  0  0  0  0
 34 35  2  0  0  0  0
 34 74  1  0  0  0  0
 35 75  1  0  0  0  0
 36 37  1  0  0  0  0
 37 38  1  0  0  0  0
 37 76  1  0  0  0  0
 37 77  1  0  0  0  0
 38 39  1  0  0  0  0
 38 78  1  0  0  0  0
 38 79  1  0  0  0  0
 39 40  1  0  0  0  0
 39 80  1  0  0  0  0
 39 81  1  0  0  0  0
 40 41  2  0  0  0  0
 40 42  1  0  0  0  0
 42 82  1  0  0  0  0
 43 44  2  0  0  0  0
 43 48  1  0  0  0  0
 44 45  1  0  0  0  0
 44 50  1  0  0  0  0
 45 46  2  0  0  0  0
 45 83  1  0  0  0  0
 46 47  1  0  0  0  0
 46 49  1  0  0  0  0
 47 48  2  0  0  0  0
 47 84  1  0  0  0  0
 48 85  1  0  0  0  0
M  END
