
 OpenBabel10072619593D

 52 56  0  0  0  0  0  0  0  0999 V2000
    0.5357   -1.5924    1.5566 C   0  0  0  0  0  0  0  0  0  0  0  0
    1.5437   -0.5855    2.1263 C   0  0  0  0  0  0  0  0  0  0  0  0
    2.0497    0.4458    1.1270 C   0  0  0  0  0  0  0  0  0  0  0  0
    3.1663    0.9654    1.2405 O   0  0  0  0  0  0  0  0  0  0  0  0
    1.1356    0.8423    0.1863 N   0  0  0  0  0  0  0  0  0  0  0  0
    1.3058    1.8833   -0.8269 C   0  0  0  0  0  0  0  0  0  0  0  0
   -0.0590    2.0114   -1.5480 C   0  0  0  0  0  0  0  0  0  0  0  0
   -0.7957    0.8057   -1.0427 C   0  0  0  0  0  0  0  0  0  0  0  0
   -2.0081    0.2667   -1.4317 C   0  0  0  0  0  0  0  0  0  0  0  0
   -2.4443   -0.8948   -0.7733 C   0  0  0  0  0  0  0  0  0  0  0  0
   -1.6606   -1.5248    0.2254 C   0  0  0  0  0  0  0  0  0  0  0  0
   -0.4448   -0.9602    0.6180 C   0  0  0  0  0  0  0  0  0  0  0  0
   -0.0677    0.1954   -0.0314 C   0  0  0  0  0  0  0  0  0  0  0  0
   -3.9586   -1.6818   -1.3088 S   0  0  0  0  0  0  0  0  0  0  0  0
   -4.1099   -1.3951   -2.7193 O   0  0  0  0  0  0  0  0  0  0  0  0
   -3.9272   -3.0274   -0.7953 O   0  0  0  0  0  0  0  0  0  0  0  0
   -5.1202   -0.8504   -0.4165 N   0  0  0  0  0  0  0  0  0  0  0  0
   -5.7570    0.3317   -1.0495 C   0  0  0  0  0  0  0  0  0  0  0  0
   -6.8001   -0.0461   -2.1012 C   0  0  0  0  0  0  0  0  0  0  0  0
   -7.6755   -1.1260   -1.9015 C   0  0  0  0  0  0  0  0  0  0  0  0
   -8.6514   -1.4482   -2.8450 C   0  0  0  0  0  0  0  0  0  0  0  0
   -8.7628   -0.6974   -4.0109 C   0  0  0  0  0  0  0  0  0  0  0  0
   -7.8909    0.3637   -4.2381 C   0  0  0  0  0  0  0  0  0  0  0  0
   -6.9191    0.6956   -3.2863 C   0  0  0  0  0  0  0  0  0  0  0  0
   -6.3799    1.2319    0.0244 C   0  0  0  0  0  0  0  0  0  0  0  0
   -6.2471    2.6276   -0.0434 C   0  0  0  0  0  0  0  0  0  0  0  0
   -6.8613    3.4519    0.9061 C   0  0  0  0  0  0  0  0  0  0  0  0
   -7.6170    2.8926    1.9358 C   0  0  0  0  0  0  0  0  0  0  0  0
   -7.7561    1.5130    2.0228 C   0  0  0  0  0  0  0  0  0  0  0  0
   -7.1446    0.6884    1.0742 C   0  0  0  0  0  0  0  0  0  0  0  0
    0.0068   -2.0756    2.3860 H   0  0  0  0  0  0  0  0  0  0  0  0
    1.0769   -2.3733    1.0068 H   0  0  0  0  0  0  0  0  0  0  0  0
    2.4023   -1.1310    2.5350 H   0  0  0  0  0  0  0  0  0  0  0  0
    1.0853   -0.0294    2.9545 H   0  0  0  0  0  0  0  0  0  0  0  0
    2.0907    1.5535   -1.5200 H   0  0  0  0  0  0  0  0  0  0  0  0
    1.6282    2.8191   -0.3569 H   0  0  0  0  0  0  0  0  0  0  0  0
    0.0612    1.9944   -2.6353 H   0  0  0  0  0  0  0  0  0  0  0  0
   -0.5769    2.9285   -1.2436 H   0  0  0  0  0  0  0  0  0  0  0  0
   -2.5806    0.7092   -2.2402 H   0  0  0  0  0  0  0  0  0  0  0  0
   -1.9795   -2.4664    0.6621 H   0  0  0  0  0  0  0  0  0  0  0  0
   -4.7968   -0.6569    0.5290 H   0  0  0  0  0  0  0  0  0  0  0  0
   -4.9600    0.9171   -1.5284 H   0  0  0  0  0  0  0  0  0  0  0  0
   -7.6014   -1.7270   -0.9970 H   0  0  0  0  0  0  0  0  0  0  0  0
   -9.3114   -2.2926   -2.6742 H   0  0  0  0  0  0  0  0  0  0  0  0
   -9.5229   -0.9494   -4.7465 H   0  0  0  0  0  0  0  0  0  0  0  0
   -7.9690    0.9356   -5.1561 H   0  0  0  0  0  0  0  0  0  0  0  0
   -6.2527    1.5302   -3.4897 H   0  0  0  0  0  0  0  0  0  0  0  0
   -5.6770    3.0935   -0.8435 H   0  0  0  0  0  0  0  0  0  0  0  0
   -6.7612    4.5320    0.8373 H   0  0  0  0  0  0  0  0  0  0  0  0
   -8.1090    3.5361    2.6625 H   0  0  0  0  0  0  0  0  0  0  0  0
   -8.3524    1.0738    2.8206 H   0  0  0  0  0  0  0  0  0  0  0  0
   -7.2837   -0.3868    1.1498 H   0  0  0  0  0  0  0  0  0  0  0  0
  1  2  1  0  0  0  0
  1 12  1  0  0  0  0
  1 31  1  0  0  0  0
  1 32  1  0  0  0  0
  2  3  1  0  0  0  0
  2 33  1  0  0  0  0
  2 34  1  0  0  0  0
  3  4  2  0  0  0  0
  3  5  1  0  0  0  0
  5  6  1  0  0  0  0
  5 13  1  0  0  0  0
  6  7  1  0  0  0  0
  6 35  1  0  0  0  0
  6 36  1  0  0  0  0
  7  8  1  0  0  0  0
  7 37  1  0  0  0  0
  7 38  1  0  0  0  0
  8  9  2  0  0  0  0
  8 13  1  0  0  0  0
  9 10  1  0  0  0  0
  9 39  1  0  0  0  0
 10 11  2  0  0  0  0
 10 14  1  0  0  0  0
 11 12  1  0  0  0  0
 11 40  1  0  0  0  0
 12 13  2  0  0  0  0
 14 15  2  0  0  0  0
 14 16  2  0  0  0  0
 14 17  1  0  0  0  0
 17 18  1  0  0  0  0
 17 41  1  0  0  0  0
 18 19  1  0  0  0  0
 18 25  1  0  0  0  0
 18 42  1  0  0  0  0
 19 20  2  0  0  0  0
 19 24  1  0  0  0  0
 20 21  1  0  0  0  0
 20 43  1  0  0  0  0
 21 22  2  0  0  0  0
 21 44  1  0  0  0  0
 22 23  1  0  0  0  0
 22 45  1  0  0  0  0
 23 24  2  0  0  0  0
 23 46  1  0  0  0  0
 24 47  1  0  0  0  0
 25 26  2  0  0  0  0
 25 30  1  0  0  0  0
 26 27  1  0  0  0  0
 26 48  1  0  0  0  0
 27 28  2  0  0  0  0
 27 49  1  0  0  0  0
 28 29  1  0  0  0  0
 28 50  1  0  0  0  0
 29 30  2  0  0  0  0
 29 51  1  0  0  0  0
 30 52  1  0  0  0  0
M  END
