
 OpenBabel10072619523D

 57 59  0  0  0  0  0  0  0  0999 V2000
   -1.8816    1.8837   -0.3296 C   0  0  0  0  0  0  0  0  0  0  0  0
   -0.8815    0.7784   -0.1427 C   0  0  0  0  0  0  0  0  0  0  0  0
   -1.2174   -0.5763   -0.0282 C   0  0  0  0  0  0  0  0  0  0  0  0
   -0.1741   -1.5114   -0.0390 C   0  0  0  0  0  0  0  0  0  0  0  0
    1.1610   -1.1027   -0.1033 C   0  0  0  0  0  0  0  0  0  0  0  0
    1.4089    0.2737   -0.1515 C   0  0  0  0  0  0  0  0  0  0  0  0
    0.4143    1.1971   -0.1788 N   0  0  0  0  0  0  0  0  0  0  0  0
    2.8003    0.8403   -0.1700 C   0  0  0  0  0  0  0  0  0  0  0  0
    2.2164   -2.0386   -0.2143 N   0  0  0  0  0  0  0  0  0  0  0  0
    2.1512   -3.3894    0.0914 C   0  0  0  0  0  0  0  0  0  0  0  0
    1.2972   -3.9067    0.8021 O   0  0  0  0  0  0  0  0  0  0  0  0
    3.1631   -4.0715   -0.5571 N   0  0  0  0  0  0  0  0  0  0  0  0
    3.4724   -5.4435   -0.4281 C   0  0  0  0  0  0  0  0  0  0  0  0
    3.1729   -6.1860    0.7180 C   0  0  0  0  0  0  0  0  0  0  0  0
    3.5414   -7.5306    0.7937 C   0  0  0  0  0  0  0  0  0  0  0  0
    4.2113   -8.1348   -0.2683 C   0  0  0  0  0  0  0  0  0  0  0  0
    4.4961   -7.4069   -1.4262 C   0  0  0  0  0  0  0  0  0  0  0  0
    4.1376   -6.0587   -1.5091 C   0  0  0  0  0  0  0  0  0  0  0  0
    4.3840   -5.2423   -2.5902 O   0  0  0  0  0  0  0  0  0  0  0  0
    4.7324   -5.8964   -3.8045 C   0  0  0  0  0  0  0  0  0  0  0  0
   -2.5303   -1.1046   -0.0036 N   0  0  0  0  0  0  0  0  0  0  0  0
   -3.6169   -0.5184    0.6198 C   0  0  0  0  0  0  0  0  0  0  0  0
   -3.5314    0.3769    1.4511 O   0  0  0  0  0  0  0  0  0  0  0  0
   -4.7888   -1.0949    0.1674 N   0  0  0  0  0  0  0  0  0  0  0  0
   -6.1091   -0.7817    0.5638 C   0  0  0  0  0  0  0  0  0  0  0  0
   -6.3977   -0.0793    1.7374 C   0  0  0  0  0  0  0  0  0  0  0  0
   -7.7203    0.1890    2.0922 C   0  0  0  0  0  0  0  0  0  0  0  0
   -8.7627   -0.2396    1.2770 C   0  0  0  0  0  0  0  0  0  0  0  0
   -8.4893   -0.9454    0.1051 C   0  0  0  0  0  0  0  0  0  0  0  0
   -7.1677   -1.2248   -0.2607 C   0  0  0  0  0  0  0  0  0  0  0  0
   -6.8040   -1.9116   -1.3983 O   0  0  0  0  0  0  0  0  0  0  0  0
   -7.8628   -2.3166   -2.2631 C   0  0  0  0  0  0  0  0  0  0  0  0
   -2.7136    1.5603   -0.9635 H   0  0  0  0  0  0  0  0  0  0  0  0
   -1.4134    2.7344   -0.8408 H   0  0  0  0  0  0  0  0  0  0  0  0
   -2.2513    2.2463    0.6340 H   0  0  0  0  0  0  0  0  0  0  0  0
   -0.4192   -2.5691   -0.0099 H   0  0  0  0  0  0  0  0  0  0  0  0
    3.3405    0.5393    0.7341 H   0  0  0  0  0  0  0  0  0  0  0  0
    2.7749    1.9363   -0.1892 H   0  0  0  0  0  0  0  0  0  0  0  0
    3.3449    0.5042   -1.0588 H   0  0  0  0  0  0  0  0  0  0  0  0
    3.1485   -1.6866   -0.3818 H   0  0  0  0  0  0  0  0  0  0  0  0
    3.4819   -3.6672   -1.4315 H   0  0  0  0  0  0  0  0  0  0  0  0
    2.6763   -5.7339    1.5720 H   0  0  0  0  0  0  0  0  0  0  0  0
    3.3180   -8.1007    1.6923 H   0  0  0  0  0  0  0  0  0  0  0  0
    4.5044   -9.1798   -0.1965 H   0  0  0  0  0  0  0  0  0  0  0  0
    5.0171   -7.9087   -2.2348 H   0  0  0  0  0  0  0  0  0  0  0  0
    3.9908   -6.6557   -4.0746 H   0  0  0  0  0  0  0  0  0  0  0  0
    5.7354   -6.3273   -3.7383 H   0  0  0  0  0  0  0  0  0  0  0  0
    4.7462   -5.1449   -4.5997 H   0  0  0  0  0  0  0  0  0  0  0  0
   -2.6127   -2.1109   -0.0581 H   0  0  0  0  0  0  0  0  0  0  0  0
   -4.7263   -1.6307   -0.6896 H   0  0  0  0  0  0  0  0  0  0  0  0
   -5.6095    0.2538    2.4066 H   0  0  0  0  0  0  0  0  0  0  0  0
   -7.9321    0.7262    3.0124 H   0  0  0  0  0  0  0  0  0  0  0  0
   -9.7918   -0.0334    1.5595 H   0  0  0  0  0  0  0  0  0  0  0  0
   -9.3322   -1.2637   -0.4979 H   0  0  0  0  0  0  0  0  0  0  0  0
   -8.4361   -1.4556   -2.6246 H   0  0  0  0  0  0  0  0  0  0  0  0
   -8.5174   -3.0439   -1.7702 H   0  0  0  0  0  0  0  0  0  0  0  0
   -7.4188   -2.8049   -3.1359 H   0  0  0  0  0  0  0  0  0  0  0  0
  1  2  1  0  0  0  0
  1 33  1  0  0  0  0
  1 34  1  0  0  0  0
  1 35  1  0  0  0  0
  2  3  2  0  0  0  0
  2  7  1  0  0  0  0
  3  4  1  0  0  0  0
  3 21  1  0  0  0  0
  4  5  2  0  0  0  0
  4 36  1  0  0  0  0
  5  6  1  0  0  0  0
  5  9  1  0  0  0  0
  6  7  2  0  0  0  0
  6  8  1  0  0  0  0
  8 37  1  0  0  0  0
  8 38  1  0  0  0  0
  8 39  1  0  0  0  0
  9 10  1  0  0  0  0
  9 40  1  0  0  0  0
 10 11  2  0  0  0  0
 10 12  1  0  0  0  0
 12 13  1  0  0  0  0
 12 41  1  0  0  0  0
 13 14  2  0  0  0  0
 13 18  1  0  0  0  0
 14 15  1  0  0  0  0
 14 42  1  0  0  0  0
 15 16  2  0  0  0  0
 15 43  1  0  0  0  0
 16 17  1  0  0  0  0
 16 44  1  0  0  0  0
 17 18  2  0  0  0  0
 17 45  1  0  0  0  0
 18 19  1  0  0  0  0
 19 20  1  0  0  0  0
 20 46  1  0  0  0  0
 20 47  1  0  0  0  0
 20 48  1  0  0  0  0
 21 22  1  0  0  0  0
 21 49  1  0  0  0  0
 22 23  2  0  0  0  0
 22 24  1  0  0  0  0
 24 25  1  0  0  0  0
 24 50  1  0  0  0  0
 25 26  2  0  0  0  0
 25 30  1  0  0  0  0
 26 27  1  0  0  0  0
 26 51  1  0  0  0  0
 27 28  2  0  0  0  0
 27 52  1  0  0  0  0
 28 29  1  0  0  0  0
 28 53  1  0  0  0  0
 29 30  2  0  0  0  0
 29 54  1  0  0  0  0
 30 31  1  0  0  0  0
 31 32  1  0  0  0  0
 32 55  1  0  0  0  0
 32 56  1  0  0  0  0
 32 57  1  0  0  0  0
M  END
