
 OpenBabel10072619483D

 34 35  0  0  0  0  0  0  0  0999 V2000
    0.1253    0.2949   -1.5808 C   0  0  0  0  0  0  0  0  0  0  0  0
    0.8366   -0.8535   -1.2312 C   0  0  0  0  0  0  0  0  0  0  0  0
    2.0052   -0.7316   -0.4751 C   0  0  0  0  0  0  0  0  0  0  0  0
    2.4113    0.5492   -0.1168 C   0  0  0  0  0  0  0  0  0  0  0  0
    1.7327    1.6787   -0.4382 N   0  0  0  0  0  0  0  0  0  0  0  0
    0.6067    1.5258   -1.1648 C   0  0  0  0  0  0  0  0  0  0  0  0
    2.8624   -1.8796   -0.0933 C   0  0  0  0  0  0  0  0  0  0  0  0
    4.0343   -1.6885    0.2242 O   0  0  0  0  0  0  0  0  0  0  0  0
    2.2690   -3.1360   -0.0700 N   0  0  0  0  0  0  0  0  0  0  0  0
    2.8892   -4.3790   -0.0572 C   0  0  0  0  0  0  0  0  0  0  0  0
    1.8688   -5.6988   -0.1503 S   0  0  0  0  0  0  0  0  0  0  0  0
    4.2607   -4.3325    0.0352 N   0  0  0  0  0  0  0  0  0  0  0  0
    5.2723   -5.2992   -0.1496 C   0  0  0  0  0  0  0  0  0  0  0  0
    5.0934   -6.5396   -0.7651 C   0  0  0  0  0  0  0  0  0  0  0  0
    6.1708   -7.4214   -0.9296 C   0  0  0  0  0  0  0  0  0  0  0  0
    7.4424   -7.0531   -0.4908 C   0  0  0  0  0  0  0  0  0  0  0  0
    7.6421   -5.8178    0.1249 C   0  0  0  0  0  0  0  0  0  0  0  0
    6.5614   -4.9433    0.2795 C   0  0  0  0  0  0  0  0  0  0  0  0
    8.8060   -8.1602   -0.6884 S   0  0  0  0  0  0  0  0  0  0  0  0
    9.6957   -8.0205    0.4403 O   0  0  0  0  0  0  0  0  0  0  0  0
    8.3245   -9.4433   -1.1442 O   0  0  0  0  0  0  0  0  0  0  0  0
    9.6187   -7.4950   -1.9985 N   0  0  0  0  0  0  0  0  0  0  0  0
   -0.7808    0.2348   -2.1744 H   0  0  0  0  0  0  0  0  0  0  0  0
    0.4764   -1.8140   -1.5837 H   0  0  0  0  0  0  0  0  0  0  0  0
    3.3199    0.7165    0.4566 H   0  0  0  0  0  0  0  0  0  0  0  0
    0.0903    2.4473   -1.4190 H   0  0  0  0  0  0  0  0  0  0  0  0
    1.2648   -3.2078   -0.1581 H   0  0  0  0  0  0  0  0  0  0  0  0
    4.6051   -3.4152    0.3284 H   0  0  0  0  0  0  0  0  0  0  0  0
    4.1354   -6.8461   -1.1669 H   0  0  0  0  0  0  0  0  0  0  0  0
    6.0042   -8.3804   -1.4160 H   0  0  0  0  0  0  0  0  0  0  0  0
    8.6278   -5.5256    0.4787 H   0  0  0  0  0  0  0  0  0  0  0  0
    6.7389   -3.9790    0.7526 H   0  0  0  0  0  0  0  0  0  0  0  0
   10.5507   -7.2007   -1.7055 H   0  0  0  0  0  0  0  0  0  0  0  0
    9.6240   -8.1635   -2.7697 H   0  0  0  0  0  0  0  0  0  0  0  0
  1  2  2  0  0  0  0
  1  6  1  0  0  0  0
  1 23  1  0  0  0  0
  2  3  1  0  0  0  0
  2 24  1  0  0  0  0
  3  4  2  0  0  0  0
  3  7  1  0  0  0  0
  4  5  1  0  0  0  0
  4 25  1  0  0  0  0
  5  6  2  0  0  0  0
  6 26  1  0  0  0  0
  7  8  2  0  0  0  0
  7  9  1  0  0  0  0
  9 10  1  0  0  0  0
  9 27  1  0  0  0  0
 10 11  2  0  0  0  0
 10 12  1  0  0  0  0
 12 13  1  0  0  0  0
 12 28  1  0  0  0  0
 13 14  2  0  0  0  0
 13 18  1  0  0  0  0
 14 15  1  0  0  0  0
 14 29  1  0  0  0  0
 15 16  2  0  0  0  0
 15 30  1  0  0  0  0
 16 17  1  0  0  0  0
 16 19  1  0  0  0  0
 17 18  2  0  0  0  0
 17 31  1  0  0  0  0
 18 32  1  0  0  0  0
 19 20  2  0  0  0  0
 19 21  2  0  0  0  0
 19 22  1  0  0  0  0
 22 33  1  0  0  0  0
 22 34  1  0  0  0  0
M  END
