
 OpenBabel10072619533D

 58 60  0  0  0  0  0  0  0  0999 V2000
    2.3912    0.3256    0.4561 C   0  0  0  0  0  0  0  0  0  0  0  0
    0.9404    0.4819    0.1063 C   0  0  0  0  0  0  0  0  0  0  0  0
   -0.0617    0.2152    1.0489 C   0  0  0  0  0  0  0  0  0  0  0  0
   -1.4066    0.3608    0.7071 C   0  0  0  0  0  0  0  0  0  0  0  0
   -1.7475    0.7784   -0.5832 C   0  0  0  0  0  0  0  0  0  0  0  0
   -0.7611    1.0405   -1.5366 C   0  0  0  0  0  0  0  0  0  0  0  0
    0.5818    0.8951   -1.1851 C   0  0  0  0  0  0  0  0  0  0  0  0
   -3.4634    1.0368   -0.9723 S   0  0  0  0  0  0  0  0  0  0  0  0
   -3.5445    1.6428   -2.2891 O   0  0  0  0  0  0  0  0  0  0  0  0
   -4.1586   -0.2029   -0.6892 O   0  0  0  0  0  0  0  0  0  0  0  0
   -3.9051    2.2371    0.1755 N   0  0  0  0  0  0  0  0  0  0  0  0
   -3.1370    3.5012    0.0954 C   0  0  0  0  0  0  0  0  0  0  0  0
   -5.3376    2.3698    0.3253 C   0  0  0  0  0  0  0  0  0  0  0  0
   -5.9979    1.6172    1.3154 C   0  0  0  0  0  0  0  0  0  0  0  0
   -7.3883    1.7060    1.4462 C   0  0  0  0  0  0  0  0  0  0  0  0
   -8.1289    2.4583    0.5321 C   0  0  0  0  0  0  0  0  0  0  0  0
   -7.4726    3.1418   -0.4955 C   0  0  0  0  0  0  0  0  0  0  0  0
   -6.0777    3.1328   -0.5825 C   0  0  0  0  0  0  0  0  0  0  0  0
   -8.4145    4.0851   -1.6787 S   0  0  0  0  0  0  0  0  0  0  0  0
   -9.6862    4.3941   -1.0585 O   0  0  0  0  0  0  0  0  0  0  0  0
   -7.5526    5.1375   -2.1739 O   0  0  0  0  0  0  0  0  0  0  0  0
   -8.6796    2.9576   -2.9381 N   0  0  0  0  0  0  0  0  0  0  0  0
   -9.7090    1.9284   -2.6618 C   0  0  0  0  0  0  0  0  0  0  0  0
   -9.8652    0.8633   -3.7432 C   0  0  0  0  0  0  0  0  0  0  0  0
   -9.9790    1.4099   -5.1632 C   0  0  0  0  0  0  0  0  0  0  0  0
   -8.6147    1.5913   -5.8213 C   0  0  0  0  0  0  0  0  0  0  0  0
   -7.7556    2.6892   -5.2021 C   0  0  0  0  0  0  0  0  0  0  0  0
   -7.4890    2.5268   -3.7081 C   0  0  0  0  0  0  0  0  0  0  0  0
   -5.2233    0.8713    2.1682 O   0  0  0  0  0  0  0  0  0  0  0  0
   -5.7608   -0.4119    2.4792 C   0  0  0  0  0  0  0  0  0  0  0  0
    2.5228   -0.0620    1.4713 H   0  0  0  0  0  0  0  0  0  0  0  0
    2.9004    1.2922    0.3919 H   0  0  0  0  0  0  0  0  0  0  0  0
    2.8675   -0.3779   -0.2342 H   0  0  0  0  0  0  0  0  0  0  0  0
    0.1974   -0.1050    2.0559 H   0  0  0  0  0  0  0  0  0  0  0  0
   -2.1820    0.1639    1.4454 H   0  0  0  0  0  0  0  0  0  0  0  0
   -1.0223    1.3596   -2.5430 H   0  0  0  0  0  0  0  0  0  0  0  0
    1.3564    1.1032   -1.9210 H   0  0  0  0  0  0  0  0  0  0  0  0
   -2.1264    3.3501    0.4900 H   0  0  0  0  0  0  0  0  0  0  0  0
   -3.6040    4.2748    0.7147 H   0  0  0  0  0  0  0  0  0  0  0  0
   -3.0721    3.8719   -0.9328 H   0  0  0  0  0  0  0  0  0  0  0  0
   -7.9065    1.1951    2.2520 H   0  0  0  0  0  0  0  0  0  0  0  0
   -9.2134    2.5008    0.6223 H   0  0  0  0  0  0  0  0  0  0  0  0
   -5.5771    3.6978   -1.3648 H   0  0  0  0  0  0  0  0  0  0  0  0
  -10.6735    2.4377   -2.5433 H   0  0  0  0  0  0  0  0  0  0  0  0
   -9.4856    1.4182   -1.7207 H   0  0  0  0  0  0  0  0  0  0  0  0
  -10.7730    0.2929   -3.5115 H   0  0  0  0  0  0  0  0  0  0  0  0
   -9.0412    0.1419   -3.6810 H   0  0  0  0  0  0  0  0  0  0  0  0
  -10.5481    2.3464   -5.1850 H   0  0  0  0  0  0  0  0  0  0  0  0
  -10.5426    0.6868   -5.7657 H   0  0  0  0  0  0  0  0  0  0  0  0
   -8.7647    1.8240   -6.8825 H   0  0  0  0  0  0  0  0  0  0  0  0
   -8.0677    0.6408   -5.7935 H   0  0  0  0  0  0  0  0  0  0  0  0
   -8.2201    3.6639   -5.3929 H   0  0  0  0  0  0  0  0  0  0  0  0
   -6.7932    2.6934   -5.7281 H   0  0  0  0  0  0  0  0  0  0  0  0
   -6.6303    3.1623   -3.4710 H   0  0  0  0  0  0  0  0  0  0  0  0
   -7.1948    1.5057   -3.4460 H   0  0  0  0  0  0  0  0  0  0  0  0
   -6.3349   -0.3577    3.4095 H   0  0  0  0  0  0  0  0  0  0  0  0
   -4.9194   -1.0920    2.6384 H   0  0  0  0  0  0  0  0  0  0  0  0
   -6.3745   -0.8282    1.6720 H   0  0  0  0  0  0  0  0  0  0  0  0
  1  2  1  0  0  0  0
  1 31  1  0  0  0  0
  1 32  1  0  0  0  0
  1 33  1  0  0  0  0
  2  3  2  0  0  0  0
  2  7  1  0  0  0  0
  3  4  1  0  0  0  0
  3 34  1  0  0  0  0
  4  5  2  0  0  0  0
  4 35  1  0  0  0  0
  5  6  1  0  0  0  0
  5  8  1  0  0  0  0
  6  7  2  0  0  0  0
  6 36  1  0  0  0  0
  7 37  1  0  0  0  0
  8  9  2  0  0  0  0
  8 10  2  0  0  0  0
  8 11  1  0  0  0  0
 11 12  1  0  0  0  0
 11 13  1  0  0  0  0
 12 38  1  0  0  0  0
 12 39  1  0  0  0  0
 12 40  1  0  0  0  0
 13 14  2  0  0  0  0
 13 18  1  0  0  0  0
 14 15  1  0  0  0  0
 14 29  1  0  0  0  0
 15 16  2  0  0  0  0
 15 41  1  0  0  0  0
 16 17  1  0  0  0  0
 16 42  1  0  0  0  0
 17 18  2  0  0  0  0
 17 19  1  0  0  0  0
 18 43  1  0  0  0  0
 19 20  2  0  0  0  0
 19 21  2  0  0  0  0
 19 22  1  0  0  0  0
 22 23  1  0  0  0  0
 22 28  1  0  0  0  0
 23 24  1  0  0  0  0
 23 44  1  0  0  0  0
 23 45  1  0  0  0  0
 24 25  1  0  0  0  0
 24 46  1  0  0  0  0
 24 47  1  0  0  0  0
 25 26  1  0  0  0  0
 25 48  1  0  0  0  0
 25 49  1  0  0  0  0
 26 27  1  0  0  0  0
 26 50  1  0  0  0  0
 26 51  1  0  0  0  0
 27 28  1  0  0  0  0
 27 52  1  0  0  0  0
 27 53  1  0  0  0  0
 28 54  1  0  0  0  0
 28 55  1  0  0  0  0
 29 30  1  0  0  0  0
 30 56  1  0  0  0  0
 30 57  1  0  0  0  0
 30 58  1  0  0  0  0
M  END
