
 OpenBabel10072620093D

 52 54  0  0  1  0  0  0  0  0999 V2000
    1.7186   -0.0393    1.6706 C   0  0  0  0  0  0  0  0  0  0  0  0
    3.1618   -0.4528    1.3801 C   0  0  0  0  0  0  0  0  0  0  0  0
    3.8771   -0.7891    2.6904 C   0  0  0  0  0  0  0  0  0  0  0  0
    3.1864   -1.6354    0.4008 C   0  0  0  0  0  0  0  0  0  0  0  0
    4.5423   -1.9501   -0.0405 N   0  0  0  0  0  0  0  0  0  0  0  0
    4.9244   -3.0924   -0.7209 C   0  0  0  0  0  0  0  0  0  0  0  0
    3.8907   -4.3210   -1.1797 S   0  0  0  0  0  0  0  0  0  0  0  0
    6.2873   -3.0593   -0.9566 N   0  0  0  0  0  0  0  0  0  0  0  0
    7.1136   -4.1537   -1.4984 C   0  0  3  0  0  0  0  0  0  0  0  0
    7.4523   -5.1731   -0.4012 C   0  0  0  0  0  0  0  0  0  0  0  0
    8.5986   -6.1367   -0.7595 C   0  0  1  0  0  0  0  0  0  0  0  0
    8.2128   -7.2030   -1.7996 C   0  0  0  0  0  0  0  0  0  0  0  0
    8.0497   -6.6702   -3.2192 C   0  0  0  0  0  0  0  0  0  0  0  0
    9.0839   -5.6075   -3.5833 C   0  0  0  0  0  0  0  0  0  0  0  0
    9.4587   -4.6438   -2.4403 C   0  0  1  0  0  0  0  0  0  0  0  0
    8.3783   -3.5852   -2.1503 C   0  0  0  0  0  0  0  0  0  0  0  0
    9.7579   -5.3330   -1.1730 N   0  0  0  0  0  0  0  0  0  0  0  0
   11.0068   -6.1140   -1.2010 C   0  0  0  0  0  0  0  0  0  0  0  0
   12.2115   -5.2360   -1.2541 C   0  0  0  0  0  0  0  0  0  0  0  0
   12.6916   -4.2410   -0.4274 C   0  0  0  0  0  0  0  0  0  0  0  0
   13.8935   -3.7793   -1.0136 C   0  0  0  0  0  0  0  0  0  0  0  0
   14.0718   -4.5229   -2.1573 C   0  0  0  0  0  0  0  0  0  0  0  0
   13.0565   -5.4114   -2.3117 O   0  0  0  0  0  0  0  0  0  0  0  0
    1.6915    0.8308    2.3356 H   0  0  0  0  0  0  0  0  0  0  0  0
    1.1632   -0.8516    2.1524 H   0  0  0  0  0  0  0  0  0  0  0  0
    1.1963    0.2290    0.7461 H   0  0  0  0  0  0  0  0  0  0  0  0
    3.6764    0.4002    0.9198 H   0  0  0  0  0  0  0  0  0  0  0  0
    3.3863   -1.6210    3.2073 H   0  0  0  0  0  0  0  0  0  0  0  0
    3.8724    0.0752    3.3635 H   0  0  0  0  0  0  0  0  0  0  0  0
    4.9219   -1.0655    2.5158 H   0  0  0  0  0  0  0  0  0  0  0  0
    2.6047   -1.3966   -0.4969 H   0  0  0  0  0  0  0  0  0  0  0  0
    2.7415   -2.5240    0.8623 H   0  0  0  0  0  0  0  0  0  0  0  0
    5.1382   -1.1515   -0.2107 H   0  0  0  0  0  0  0  0  0  0  0  0
    6.7949   -2.4038   -0.3772 H   0  0  0  0  0  0  0  0  0  0  0  0
    6.5174   -4.6364   -2.2733 H   0  0  0  0  0  0  0  0  0  0  0  0
    6.5595   -5.7470   -0.1270 H   0  0  0  0  0  0  0  0  0  0  0  0
    7.7407   -4.6261    0.5082 H   0  0  0  0  0  0  0  0  0  0  0  0
    8.8426   -6.6639    0.1729 H   0  0  0  0  0  0  0  0  0  0  0  0
    7.2898   -7.7103   -1.4939 H   0  0  0  0  0  0  0  0  0  0  0  0
    8.9880   -7.9804   -1.8122 H   0  0  0  0  0  0  0  0  0  0  0  0
    7.0399   -6.2733   -3.3529 H   0  0  0  0  0  0  0  0  0  0  0  0
    8.1182   -7.5027   -3.9303 H   0  0  0  0  0  0  0  0  0  0  0  0
    8.7268   -5.0389   -4.4510 H   0  0  0  0  0  0  0  0  0  0  0  0
    9.9932   -6.1211   -3.9203 H   0  0  0  0  0  0  0  0  0  0  0  0
   10.3384   -4.0776   -2.7713 H   0  0  0  0  0  0  0  0  0  0  0  0
    8.1102   -3.0551   -3.0732 H   0  0  0  0  0  0  0  0  0  0  0  0
    8.8138   -2.8227   -1.4883 H   0  0  0  0  0  0  0  0  0  0  0  0
   11.0260   -6.8391   -2.0222 H   0  0  0  0  0  0  0  0  0  0  0  0
   11.0900   -6.6958   -0.2732 H   0  0  0  0  0  0  0  0  0  0  0  0
   12.2158   -3.8961    0.4807 H   0  0  0  0  0  0  0  0  0  0  0  0
   14.5473   -2.9999   -0.6497 H   0  0  0  0  0  0  0  0  0  0  0  0
   14.8289   -4.5414   -2.9289 H   0  0  0  0  0  0  0  0  0  0  0  0
  1  2  1  0  0  0  0
  1 24  1  0  0  0  0
  1 25  1  0  0  0  0
  1 26  1  0  0  0  0
  2  3  1  0  0  0  0
  2  4  1  0  0  0  0
  2 27  1  0  0  0  0
  3 28  1  0  0  0  0
  3 29  1  0  0  0  0
  3 30  1  0  0  0  0
  4  5  1  0  0  0  0
  4 31  1  0  0  0  0
  4 32  1  0  0  0  0
  5  6  1  0  0  0  0
  5 33  1  0  0  0  0
  6  7  2  0  0  0  0
  6  8  1  0  0  0  0
  8  9  1  0  0  0  0
  8 34  1  0  0  0  0
  9 10  1  0  0  0  0
  9 16  1  0  0  0  0
  9 35  1  0  0  0  0
 10 11  1  0  0  0  0
 10 36  1  0  0  0  0
 10 37  1  0  0  0  0
 11 12  1  0  0  0  0
 11 17  1  0  0  0  0
 11 38  1  1  0  0  0
 12 13  1  0  0  0  0
 12 39  1  0  0  0  0
 12 40  1  0  0  0  0
 13 14  1  0  0  0  0
 13 41  1  0  0  0  0
 13 42  1  0  0  0  0
 14 15  1  0  0  0  0
 14 43  1  0  0  0  0
 14 44  1  0  0  0  0
 15 16  1  0  0  0  0
 15 17  1  0  0  0  0
 15 45  1  6  0  0  0
 16 46  1  0  0  0  0
 16 47  1  0  0  0  0
 17 18  1  0  0  0  0
 18 19  1  0  0  0  0
 18 48  1  0  0  0  0
 18 49  1  0  0  0  0
 19 20  2  0  0  0  0
 19 23  1  0  0  0  0
 20 21  1  0  0  0  0
 20 50  1  0  0  0  0
 21 22  2  0  0  0  0
 21 51  1  0  0  0  0
 22 23  1  0  0  0  0
 22 52  1  0  0  0  0
M  END
