
 OpenBabel10072619533D

 54 55  0  0  0  0  0  0  0  0999 V2000
    2.4116    0.4237   -0.0399 C   0  0  0  0  0  0  0  0  0  0  0  0
    0.9260    0.3083   -0.2181 C   0  0  0  0  0  0  0  0  0  0  0  0
    0.1421    1.4377   -0.4879 C   0  0  0  0  0  0  0  0  0  0  0  0
   -1.2436    1.3193   -0.6496 C   0  0  0  0  0  0  0  0  0  0  0  0
   -1.8581    0.0626   -0.5528 C   0  0  0  0  0  0  0  0  0  0  0  0
   -1.0677   -1.0707   -0.3143 C   0  0  0  0  0  0  0  0  0  0  0  0
    0.3141   -0.9489   -0.1514 C   0  0  0  0  0  0  0  0  0  0  0  0
   -3.3302   -0.1381   -0.7282 C   0  0  0  0  0  0  0  0  0  0  0  0
   -3.7246   -1.2242   -1.1388 O   0  0  0  0  0  0  0  0  0  0  0  0
   -4.1343    0.9356   -0.3920 N   0  0  0  0  0  0  0  0  0  0  0  0
   -5.5237    0.9999   -0.3596 C   0  0  0  0  0  0  0  0  0  0  0  0
   -6.3644   -0.0104   -0.6378 C   0  0  0  0  0  0  0  0  0  0  0  0
   -7.8310    0.0320   -0.5878 C   0  0  0  0  0  0  0  0  0  0  0  0
   -8.5701    0.1090   -1.7717 C   0  0  0  0  0  0  0  0  0  0  0  0
   -9.9691    0.1018   -1.7315 C   0  0  0  0  0  0  0  0  0  0  0  0
  -10.6419   -0.0218   -0.5139 C   0  0  0  0  0  0  0  0  0  0  0  0
   -9.9042   -0.0801    0.6696 C   0  0  0  0  0  0  0  0  0  0  0  0
   -8.5054   -0.0497    0.6346 C   0  0  0  0  0  0  0  0  0  0  0  0
  -12.0086   -0.0637   -0.5939 O   0  0  0  0  0  0  0  0  0  0  0  0
  -12.6696   -0.6410    0.5294 C   0  0  0  0  0  0  0  0  0  0  0  0
   -6.0676    2.3564    0.0127 C   0  0  0  0  0  0  0  0  0  0  0  0
   -6.8064    2.5545    0.9648 O   0  0  0  0  0  0  0  0  0  0  0  0
   -5.5340    3.3408   -0.7930 N   0  0  0  0  0  0  0  0  0  0  0  0
   -5.9251    4.7288   -0.6921 C   0  0  0  0  0  0  0  0  0  0  0  0
   -5.4969    5.4116    0.6061 C   0  0  0  0  0  0  0  0  0  0  0  0
   -3.9954    5.3502    0.8672 C   0  0  0  0  0  0  0  0  0  0  0  0
   -3.2941    5.9053   -0.2454 O   0  0  0  0  0  0  0  0  0  0  0  0
   -1.9076    6.0589    0.0268 C   0  0  0  0  0  0  0  0  0  0  0  0
    2.7051    1.4582    0.1676 H   0  0  0  0  0  0  0  0  0  0  0  0
    2.9295    0.0844   -0.9426 H   0  0  0  0  0  0  0  0  0  0  0  0
    2.7396   -0.1823    0.8118 H   0  0  0  0  0  0  0  0  0  0  0  0
    0.6082    2.4175   -0.5830 H   0  0  0  0  0  0  0  0  0  0  0  0
   -1.8082    2.2166   -0.8842 H   0  0  0  0  0  0  0  0  0  0  0  0
   -1.5278   -2.0565   -0.2584 H   0  0  0  0  0  0  0  0  0  0  0  0
    0.9096   -1.8440    0.0204 H   0  0  0  0  0  0  0  0  0  0  0  0
   -3.6873    1.7727   -0.0341 H   0  0  0  0  0  0  0  0  0  0  0  0
   -5.9879   -0.9866   -0.9277 H   0  0  0  0  0  0  0  0  0  0  0  0
   -8.0653    0.1637   -2.7329 H   0  0  0  0  0  0  0  0  0  0  0  0
  -10.5349    0.1696   -2.6574 H   0  0  0  0  0  0  0  0  0  0  0  0
  -10.3889   -0.1457    1.6374 H   0  0  0  0  0  0  0  0  0  0  0  0
   -7.9490   -0.0845    1.5699 H   0  0  0  0  0  0  0  0  0  0  0  0
  -13.7199   -0.7967    0.2624 H   0  0  0  0  0  0  0  0  0  0  0  0
  -12.6443    0.0324    1.3934 H   0  0  0  0  0  0  0  0  0  0  0  0
  -12.2427   -1.6195    0.7780 H   0  0  0  0  0  0  0  0  0  0  0  0
   -5.0608    3.0484   -1.6413 H   0  0  0  0  0  0  0  0  0  0  0  0
   -7.0149    4.7751   -0.7923 H   0  0  0  0  0  0  0  0  0  0  0  0
   -5.4937    5.2462   -1.5550 H   0  0  0  0  0  0  0  0  0  0  0  0
   -6.0285    4.9825    1.4627 H   0  0  0  0  0  0  0  0  0  0  0  0
   -5.8002    6.4637    0.5359 H   0  0  0  0  0  0  0  0  0  0  0  0
   -3.6693    4.3143    1.0198 H   0  0  0  0  0  0  0  0  0  0  0  0
   -3.7671    5.9215    1.7754 H   0  0  0  0  0  0  0  0  0  0  0  0
   -1.4222    6.4353   -0.8774 H   0  0  0  0  0  0  0  0  0  0  0  0
   -1.4568    5.0977    0.2923 H   0  0  0  0  0  0  0  0  0  0  0  0
   -1.7554    6.7840    0.8324 H   0  0  0  0  0  0  0  0  0  0  0  0
  1  2  1  0  0  0  0
  1 29  1  0  0  0  0
  1 30  1  0  0  0  0
  1 31  1  0  0  0  0
  2  3  2  0  0  0  0
  2  7  1  0  0  0  0
  3  4  1  0  0  0  0
  3 32  1  0  0  0  0
  4  5  2  0  0  0  0
  4 33  1  0  0  0  0
  5  6  1  0  0  0  0
  5  8  1  0  0  0  0
  6  7  2  0  0  0  0
  6 34  1  0  0  0  0
  7 35  1  0  0  0  0
  8  9  2  0  0  0  0
  8 10  1  0  0  0  0
 10 11  1  0  0  0  0
 10 36  1  0  0  0  0
 11 12  2  0  0  0  0
 11 21  1  0  0  0  0
 12 13  1  0  0  0  0
 12 37  1  0  0  0  0
 13 14  2  0  0  0  0
 13 18  1  0  0  0  0
 14 15  1  0  0  0  0
 14 38  1  0  0  0  0
 15 16  2  0  0  0  0
 15 39  1  0  0  0  0
 16 17  1  0  0  0  0
 16 19  1  0  0  0  0
 17 18  2  0  0  0  0
 17 40  1  0  0  0  0
 18 41  1  0  0  0  0
 19 20  1  0  0  0  0
 20 42  1  0  0  0  0
 20 43  1  0  0  0  0
 20 44  1  0  0  0  0
 21 22  2  0  0  0  0
 21 23  1  0  0  0  0
 23 24  1  0  0  0  0
 23 45  1  0  0  0  0
 24 25  1  0  0  0  0
 24 46  1  0  0  0  0
 24 47  1  0  0  0  0
 25 26  1  0  0  0  0
 25 48  1  0  0  0  0
 25 49  1  0  0  0  0
 26 27  1  0  0  0  0
 26 50  1  0  0  0  0
 26 51  1  0  0  0  0
 27 28  1  0  0  0  0
 28 52  1  0  0  0  0
 28 53  1  0  0  0  0
 28 54  1  0  0  0  0
M  END
