
 OpenBabel10072619563D

 57 60  0  0  1  0  0  0  0  0999 V2000
   -2.0250    1.9276   -0.6863 C   0  0  0  0  0  0  0  0  0  0  0  0
   -0.5906    1.7325   -0.8155 N   0  0  0  0  0  0  0  0  0  0  0  0
    0.1932    2.7915   -0.1888 C   0  0  0  0  0  0  0  0  0  0  0  0
    1.5904    2.5798   -0.7594 C   0  0  0  0  0  0  0  0  0  0  0  0
    1.3821    1.8768   -2.1056 C   0  0  2  0  0  0  0  0  0  0  0  0
   -0.1415    1.7100   -2.2123 C   0  0  0  0  0  0  0  0  0  0  0  0
    1.9591    0.5672   -2.1058 O   0  0  0  0  0  0  0  0  0  0  0  0
    3.2869    0.3939   -2.3522 C   0  0  0  0  0  0  0  0  0  0  0  0
    3.7134   -0.9349   -2.4939 C   0  0  0  0  0  0  0  0  0  0  0  0
    5.0784   -1.1915   -2.7300 C   0  0  0  0  0  0  0  0  0  0  0  0
    6.0010   -0.1501   -2.8053 C   0  0  0  0  0  0  0  0  0  0  0  0
    5.5744    1.1641   -2.6314 C   0  0  0  0  0  0  0  0  0  0  0  0
    4.2184    1.4362   -2.4348 C   0  0  0  0  0  0  0  0  0  0  0  0
    6.5560    2.2010   -2.6644 N   0  0  0  0  0  0  0  0  0  0  0  0
    6.6753    3.2434   -1.3338 S   0  0  0  0  0  0  0  0  0  0  0  0
    7.9782    3.8646   -1.4167 O   0  0  0  0  0  0  0  0  0  0  0  0
    5.4643    4.0318   -1.2366 O   0  0  0  0  0  0  0  0  0  0  0  0
    6.7083    2.2861    0.1668 C   0  0  0  0  0  0  0  0  0  0  0  0
    5.9962    2.4061    1.3420 C   0  0  0  0  0  0  0  0  0  0  0  0
    6.3220    1.3845    2.2764 C   0  0  0  0  0  0  0  0  0  0  0  0
    7.2891    0.5178    1.8025 C   0  0  0  0  0  0  0  0  0  0  0  0
    7.7860    0.9619    0.2156 S   0  0  0  0  0  0  0  0  0  0  0  0
    7.8696   -0.6750    2.4374 C   0  0  0  0  0  0  0  0  0  0  0  0
    7.0244   -1.7436    2.7820 C   0  0  0  0  0  0  0  0  0  0  0  0
    7.5388   -2.8987    3.3751 C   0  0  0  0  0  0  0  0  0  0  0  0
    8.9006   -2.9979    3.6456 C   0  0  0  0  0  0  0  0  0  0  0  0
    9.7508   -1.9382    3.3340 C   0  0  0  0  0  0  0  0  0  0  0  0
    9.2440   -0.7880    2.7161 C   0  0  0  0  0  0  0  0  0  0  0  0
   10.0638    0.2788    2.4360 O   0  0  0  0  0  0  0  0  0  0  0  0
   11.2130   -0.1018    1.6814 C   0  0  0  0  0  0  0  0  0  0  0  0
    5.5489    1.3014    3.8035 Cl  0  0  0  0  0  0  0  0  0  0  0  0
    2.7748   -2.1207   -2.4249 C   0  0  0  0  0  0  0  0  0  0  0  0
    1.4618   -1.8590   -2.1920 F   0  0  0  0  0  0  0  0  0  0  0  0
    2.7992   -2.8400   -3.5865 F   0  0  0  0  0  0  0  0  0  0  0  0
    3.1495   -3.0034   -1.4520 F   0  0  0  0  0  0  0  0  0  0  0  0
   -2.3157    1.9250    0.3699 H   0  0  0  0  0  0  0  0  0  0  0  0
   -2.5667    1.1052   -1.1669 H   0  0  0  0  0  0  0  0  0  0  0  0
   -2.3635    2.8686   -1.1342 H   0  0  0  0  0  0  0  0  0  0  0  0
    0.1931    2.7100    0.9025 H   0  0  0  0  0  0  0  0  0  0  0  0
   -0.1743    3.7889   -0.4648 H   0  0  0  0  0  0  0  0  0  0  0  0
    2.1992    1.9746   -0.0774 H   0  0  0  0  0  0  0  0  0  0  0  0
    2.0899    3.5453   -0.8943 H   0  0  0  0  0  0  0  0  0  0  0  0
    1.7423    2.4624   -2.9599 H   0  0  0  0  0  0  0  0  0  0  0  0
   -0.4241    0.7737   -2.7051 H   0  0  0  0  0  0  0  0  0  0  0  0
   -0.5634    2.5548   -2.7715 H   0  0  0  0  0  0  0  0  0  0  0  0
    5.4242   -2.2187   -2.8449 H   0  0  0  0  0  0  0  0  0  0  0  0
    7.0496   -0.3840   -2.9729 H   0  0  0  0  0  0  0  0  0  0  0  0
    3.9000    2.4675   -2.3328 H   0  0  0  0  0  0  0  0  0  0  0  0
    7.4916    1.9260   -2.9640 H   0  0  0  0  0  0  0  0  0  0  0  0
    5.2666    3.1920    1.5053 H   0  0  0  0  0  0  0  0  0  0  0  0
    5.9544   -1.6869    2.5904 H   0  0  0  0  0  0  0  0  0  0  0  0
    6.8737   -3.7190    3.6325 H   0  0  0  0  0  0  0  0  0  0  0  0
    9.2983   -3.8939    4.1152 H   0  0  0  0  0  0  0  0  0  0  0  0
   10.8029   -2.0138    3.5917 H   0  0  0  0  0  0  0  0  0  0  0  0
   11.6103    0.7933    1.1940 H   0  0  0  0  0  0  0  0  0  0  0  0
   10.9574   -0.8222    0.8958 H   0  0  0  0  0  0  0  0  0  0  0  0
   11.9904   -0.5001    2.3408 H   0  0  0  0  0  0  0  0  0  0  0  0
  1  2  1  0  0  0  0
  1 36  1  0  0  0  0
  1 37  1  0  0  0  0
  1 38  1  0  0  0  0
  2  3  1  0  0  0  0
  2  6  1  0  0  0  0
  3  4  1  0  0  0  0
  3 39  1  0  0  0  0
  3 40  1  0  0  0  0
  4  5  1  0  0  0  0
  4 41  1  0  0  0  0
  4 42  1  0  0  0  0
  5  6  1  0  0  0  0
  5  7  1  0  0  0  0
  5 43  1  6  0  0  0
  6 44  1  0  0  0  0
  6 45  1  0  0  0  0
  7  8  1  0  0  0  0
  8  9  2  0  0  0  0
  8 13  1  0  0  0  0
  9 10  1  0  0  0  0
  9 32  1  0  0  0  0
 10 11  2  0  0  0  0
 10 46  1  0  0  0  0
 11 12  1  0  0  0  0
 11 47  1  0  0  0  0
 12 13  2  0  0  0  0
 12 14  1  0  0  0  0
 13 48  1  0  0  0  0
 14 15  1  0  0  0  0
 14 49  1  0  0  0  0
 15 16  2  0  0  0  0
 15 17  2  0  0  0  0
 15 18  1  0  0  0  0
 18 19  2  0  0  0  0
 18 22  1  0  0  0  0
 19 20  1  0  0  0  0
 19 50  1  0  0  0  0
 20 21  2  0  0  0  0
 20 31  1  0  0  0  0
 21 22  1  0  0  0  0
 21 23  1  0  0  0  0
 23 24  2  0  0  0  0
 23 28  1  0  0  0  0
 24 25  1  0  0  0  0
 24 51  1  0  0  0  0
 25 26  2  0  0  0  0
 25 52  1  0  0  0  0
 26 27  1  0  0  0  0
 26 53  1  0  0  0  0
 27 28  2  0  0  0  0
 27 54  1  0  0  0  0
 28 29  1  0  0  0  0
 29 30  1  0  0  0  0
 30 55  1  0  0  0  0
 30 56  1  0  0  0  0
 30 57  1  0  0  0  0
 32 33  1  0  0  0  0
 32 34  1  0  0  0  0
 32 35  1  0  0  0  0
M  END
