
 OpenBabel10072619433D

 63 66  0  0  0  0  0  0  0  0999 V2000
    3.4421    0.1863    1.5792 C   0  0  0  0  0  0  0  0  0  0  0  0
    2.5720    0.4397    0.4808 O   0  0  0  0  0  0  0  0  0  0  0  0
    3.1330    1.1869   -0.5282 C   0  0  0  0  0  0  0  0  0  0  0  0
    2.6844    0.9458   -1.8405 C   0  0  0  0  0  0  0  0  0  0  0  0
    3.2104    1.7004   -2.8973 C   0  0  0  0  0  0  0  0  0  0  0  0
    4.1580    2.7015   -2.6496 C   0  0  0  0  0  0  0  0  0  0  0  0
    4.5909    2.9406   -1.3437 C   0  0  0  0  0  0  0  0  0  0  0  0
    4.0759    2.1916   -0.2879 C   0  0  0  0  0  0  0  0  0  0  0  0
    4.6658    3.5296   -3.7493 C   0  0  0  0  0  0  0  0  0  0  0  0
    4.2872    4.8029   -4.0035 C   0  0  0  0  0  0  0  0  0  0  0  0
    4.9931    5.4110   -5.2121 C   0  0  0  0  0  0  0  0  0  0  0  0
    5.3801    4.6643   -6.1122 O   0  0  0  0  0  0  0  0  0  0  0  0
    5.2131    6.7632   -5.1710 N   0  0  0  0  0  0  0  0  0  0  0  0
    5.9961    7.5509   -6.0429 C   0  0  0  0  0  0  0  0  0  0  0  0
    6.7039    7.0492   -7.1397 C   0  0  0  0  0  0  0  0  0  0  0  0
    7.4981    7.8952   -7.9274 C   0  0  0  0  0  0  0  0  0  0  0  0
    7.5773    9.2549   -7.6241 C   0  0  0  0  0  0  0  0  0  0  0  0
    6.8841    9.7698   -6.5267 C   0  0  0  0  0  0  0  0  0  0  0  0
    6.0893    8.9196   -5.7495 C   0  0  0  0  0  0  0  0  0  0  0  0
    8.6716   10.3039   -8.5480 S   0  0  0  0  0  0  0  0  0  0  0  0
    8.9796   11.4434   -7.6997 O   0  0  0  0  0  0  0  0  0  0  0  0
    9.7495    9.5129   -9.0956 O   0  0  0  0  0  0  0  0  0  0  0  0
    7.6959   10.9285   -9.7503 N   0  0  0  0  0  0  0  0  0  0  0  0
    7.7117   10.2536  -10.9811 C   0  0  0  0  0  0  0  0  0  0  0  0
    7.6561    8.9503  -11.0848 N   0  0  0  0  0  0  0  0  0  0  0  0
    7.6806    8.5960  -12.4208 C   0  0  0  0  0  0  0  0  0  0  0  0
    7.7306    9.6455  -13.3128 C   0  0  0  0  0  0  0  0  0  0  0  0
    7.7031   11.1272  -12.4519 S   0  0  0  0  0  0  0  0  0  0  0  0
    3.3033    5.3938   -3.2224 N   0  0  0  0  0  0  0  0  0  0  0  0
    2.7490    6.6491   -3.2743 C   0  0  0  0  0  0  0  0  0  0  0  0
    3.1710    7.6213   -3.8855 O   0  0  0  0  0  0  0  0  0  0  0  0
    1.5135    6.7827   -2.4754 C   0  0  0  0  0  0  0  0  0  0  0  0
    1.5800    6.9100   -1.0857 C   0  0  0  0  0  0  0  0  0  0  0  0
    0.3976    6.9949   -0.3488 C   0  0  0  0  0  0  0  0  0  0  0  0
   -0.8366    6.9411   -1.0013 C   0  0  0  0  0  0  0  0  0  0  0  0
   -0.8971    6.8199   -2.3909 C   0  0  0  0  0  0  0  0  0  0  0  0
    0.2812    6.7494   -3.1330 C   0  0  0  0  0  0  0  0  0  0  0  0
    1.7616   -0.0588   -1.9896 O   0  0  0  0  0  0  0  0  0  0  0  0
    1.1030   -0.1656   -3.2445 C   0  0  0  0  0  0  0  0  0  0  0  0
    3.5315    1.0719    2.2175 H   0  0  0  0  0  0  0  0  0  0  0  0
    4.4263   -0.1481    1.2319 H   0  0  0  0  0  0  0  0  0  0  0  0
    3.0098   -0.6145    2.1857 H   0  0  0  0  0  0  0  0  0  0  0  0
    2.8994    1.5243   -3.9226 H   0  0  0  0  0  0  0  0  0  0  0  0
    5.3298    3.7112   -1.1341 H   0  0  0  0  0  0  0  0  0  0  0  0
    4.4205    2.4189    0.7153 H   0  0  0  0  0  0  0  0  0  0  0  0
    5.4180    3.0346   -4.3632 H   0  0  0  0  0  0  0  0  0  0  0  0
    4.7065    7.2751   -4.4523 H   0  0  0  0  0  0  0  0  0  0  0  0
    6.6678    5.9968   -7.4038 H   0  0  0  0  0  0  0  0  0  0  0  0
    8.0579    7.4820   -8.7651 H   0  0  0  0  0  0  0  0  0  0  0  0
    6.9721   10.8193   -6.2543 H   0  0  0  0  0  0  0  0  0  0  0  0
    5.5640    9.3367   -4.8920 H   0  0  0  0  0  0  0  0  0  0  0  0
    7.7169   11.9423   -9.7968 H   0  0  0  0  0  0  0  0  0  0  0  0
    7.6618    7.5468  -12.6907 H   0  0  0  0  0  0  0  0  0  0  0  0
    7.7675    9.6125  -14.3916 H   0  0  0  0  0  0  0  0  0  0  0  0
    2.8672    4.7611   -2.5552 H   0  0  0  0  0  0  0  0  0  0  0  0
    2.5366    6.9617   -0.5752 H   0  0  0  0  0  0  0  0  0  0  0  0
    0.4286    7.1093    0.7328 H   0  0  0  0  0  0  0  0  0  0  0  0
   -1.7590    6.9880   -0.4275 H   0  0  0  0  0  0  0  0  0  0  0  0
   -1.8594    6.7871   -2.8977 H   0  0  0  0  0  0  0  0  0  0  0  0
    0.2411    6.6707   -4.2161 H   0  0  0  0  0  0  0  0  0  0  0  0
    0.2874   -0.8882   -3.1367 H   0  0  0  0  0  0  0  0  0  0  0  0
    1.7853   -0.5432   -4.0126 H   0  0  0  0  0  0  0  0  0  0  0  0
    0.6589    0.7881   -3.5476 H   0  0  0  0  0  0  0  0  0  0  0  0
  1  2  1  0  0  0  0
  1 40  1  0  0  0  0
  1 41  1  0  0  0  0
  1 42  1  0  0  0  0
  2  3  1  0  0  0  0
  3  4  2  0  0  0  0
  3  8  1  0  0  0  0
  4  5  1  0  0  0  0
  4 38  1  0  0  0  0
  5  6  2  0  0  0  0
  5 43  1  0  0  0  0
  6  7  1  0  0  0  0
  6  9  1  0  0  0  0
  7  8  2  0  0  0  0
  7 44  1  0  0  0  0
  8 45  1  0  0  0  0
  9 10  2  0  0  0  0
  9 46  1  0  0  0  0
 10 11  1  0  0  0  0
 10 29  1  0  0  0  0
 11 12  2  0  0  0  0
 11 13  1  0  0  0  0
 13 14  1  0  0  0  0
 13 47  1  0  0  0  0
 14 15  2  0  0  0  0
 14 19  1  0  0  0  0
 15 16  1  0  0  0  0
 15 48  1  0  0  0  0
 16 17  2  0  0  0  0
 16 49  1  0  0  0  0
 17 18  1  0  0  0  0
 17 20  1  0  0  0  0
 18 19  2  0  0  0  0
 18 50  1  0  0  0  0
 19 51  1  0  0  0  0
 20 21  2  0  0  0  0
 20 22  2  0  0  0  0
 20 23  1  0  0  0  0
 23 24  1  0  0  0  0
 23 52  1  0  0  0  0
 24 25  2  0  0  0  0
 24 28  1  0  0  0  0
 25 26  1  0  0  0  0
 26 27  2  0  0  0  0
 26 53  1  0  0  0  0
 27 28  1  0  0  0  0
 27 54  1  0  0  0  0
 29 30  1  0  0  0  0
 29 55  1  0  0  0  0
 30 31  2  0  0  0  0
 30 32  1  0  0  0  0
 32 33  2  0  0  0  0
 32 37  1  0  0  0  0
 33 34  1  0  0  0  0
 33 56  1  0  0  0  0
 34 35  2  0  0  0  0
 34 57  1  0  0  0  0
 35 36  1  0  0  0  0
 35 58  1  0  0  0  0
 36 37  2  0  0  0  0
 36 59  1  0  0  0  0
 37 60  1  0  0  0  0
 38 39  1  0  0  0  0
 39 61  1  0  0  0  0
 39 62  1  0  0  0  0
 39 63  1  0  0  0  0
M  END
