
 OpenBabel10072620113D

 57 60  0  0  1  0  0  0  0  0999 V2000
    3.8018   -2.8592    6.6988 C   0  0  0  0  0  0  0  0  0  0  0  0
    4.6272   -2.4599    5.5096 C   0  0  0  0  0  0  0  0  0  0  0  0
    4.0764   -2.4551    4.2209 C   0  0  0  0  0  0  0  0  0  0  0  0
    4.8543   -2.1308    3.0933 C   0  0  0  0  0  0  0  0  0  0  0  0
    6.2187   -1.8331    3.2659 C   0  0  0  0  0  0  0  0  0  0  0  0
    7.1353   -1.6032    2.1410 C   0  0  0  0  0  0  0  0  0  0  0  0
    8.4385   -1.3218    2.3302 C   0  0  0  0  0  0  0  0  0  0  0  0
    8.9674   -1.1926    3.7190 C   0  0  0  0  0  0  0  0  0  0  0  0
   10.1338   -0.8844    3.9557 O   0  0  0  0  0  0  0  0  0  0  0  0
    8.0971   -1.4496    4.7427 N   0  0  0  0  0  0  0  0  0  0  0  0
    6.7527   -1.7943    4.5625 C   0  0  0  0  0  0  0  0  0  0  0  0
    5.9672   -2.0972    5.6769 C   0  0  0  0  0  0  0  0  0  0  0  0
    9.4234   -1.2389    1.1945 C   0  0  0  0  0  0  0  0  0  0  0  0
   10.0152    0.1045    1.0642 N   0  0  0  0  0  0  0  0  0  0  0  0
    9.0877    1.1804    0.6777 C   0  0  0  0  0  0  0  0  0  0  0  0
    9.1108    1.4388   -0.7942 C   0  0  0  0  0  0  0  0  0  0  0  0
    9.4326    0.7095   -1.9220 C   0  0  0  0  0  0  0  0  0  0  0  0
    9.2564    1.5750   -3.0322 C   0  0  0  0  0  0  0  0  0  0  0  0
    8.8217    2.7723   -2.5140 C   0  0  0  0  0  0  0  0  0  0  0  0
    8.7194    2.6965   -1.1648 O   0  0  0  0  0  0  0  0  0  0  0  0
   11.4119    0.2964    1.0452 C   0  0  0  0  0  0  0  0  0  0  0  0
   12.5246   -0.9217    0.7050 S   0  0  0  0  0  0  0  0  0  0  0  0
   11.7945    1.6017    1.2808 N   0  0  0  0  0  0  0  0  0  0  0  0
   13.1222    2.2029    1.1338 C   0  0  0  0  0  0  0  0  0  0  0  0
   13.7273    2.7080    2.4486 C   0  0  3  0  0  0  0  0  0  0  0  0
   13.8916    1.6890    3.5632 C   0  0  0  0  0  0  0  0  0  0  0  0
   13.9552    2.5835    4.7791 C   0  0  0  0  0  0  0  0  0  0  0  0
   12.9731    3.6829    4.4290 C   0  0  0  0  0  0  0  0  0  0  0  0
   12.9183    3.7704    2.9974 O   0  0  0  0  0  0  0  0  0  0  0  0
    4.1939   -2.0799    1.7426 C   0  0  0  0  0  0  0  0  0  0  0  0
    2.7737   -3.1050    6.4123 H   0  0  0  0  0  0  0  0  0  0  0  0
    3.7623   -2.0432    7.4269 H   0  0  0  0  0  0  0  0  0  0  0  0
    4.2345   -3.7459    7.1745 H   0  0  0  0  0  0  0  0  0  0  0  0
    3.0256   -2.7107    4.0907 H   0  0  0  0  0  0  0  0  0  0  0  0
    6.7508   -1.7320    1.1359 H   0  0  0  0  0  0  0  0  0  0  0  0
    8.4853   -1.3741    5.6728 H   0  0  0  0  0  0  0  0  0  0  0  0
    6.3976   -2.0731    6.6750 H   0  0  0  0  0  0  0  0  0  0  0  0
    8.9455   -1.4809    0.2369 H   0  0  0  0  0  0  0  0  0  0  0  0
   10.1765   -2.0127    1.3629 H   0  0  0  0  0  0  0  0  0  0  0  0
    9.3396    2.1014    1.2098 H   0  0  0  0  0  0  0  0  0  0  0  0
    8.0685    0.9282    0.9855 H   0  0  0  0  0  0  0  0  0  0  0  0
    9.7786   -0.3154   -1.9509 H   0  0  0  0  0  0  0  0  0  0  0  0
    9.4326    1.3588   -4.0760 H   0  0  0  0  0  0  0  0  0  0  0  0
    8.5618    3.7272   -2.9479 H   0  0  0  0  0  0  0  0  0  0  0  0
   11.1498    2.1900    1.7875 H   0  0  0  0  0  0  0  0  0  0  0  0
   12.9581    3.0637    0.4754 H   0  0  0  0  0  0  0  0  0  0  0  0
   13.8140    1.5262    0.6290 H   0  0  0  0  0  0  0  0  0  0  0  0
   14.7052    3.1533    2.2221 H   0  0  0  0  0  0  0  0  0  0  0  0
   14.7842    1.0682    3.4423 H   0  0  0  0  0  0  0  0  0  0  0  0
   13.0206    1.0308    3.6463 H   0  0  0  0  0  0  0  0  0  0  0  0
   14.9634    3.0017    4.8852 H   0  0  0  0  0  0  0  0  0  0  0  0
   13.7025    2.0750    5.7137 H   0  0  0  0  0  0  0  0  0  0  0  0
   13.2683    4.6519    4.8431 H   0  0  0  0  0  0  0  0  0  0  0  0
   11.9655    3.4457    4.7844 H   0  0  0  0  0  0  0  0  0  0  0  0
    3.1388   -2.3674    1.7950 H   0  0  0  0  0  0  0  0  0  0  0  0
    4.6841   -2.7627    1.0421 H   0  0  0  0  0  0  0  0  0  0  0  0
    4.2375   -1.0577    1.3508 H   0  0  0  0  0  0  0  0  0  0  0  0
  1  2  1  0  0  0  0
  1 31  1  0  0  0  0
  1 32  1  0  0  0  0
  1 33  1  0  0  0  0
  2  3  2  0  0  0  0
  2 12  1  0  0  0  0
  3  4  1  0  0  0  0
  3 34  1  0  0  0  0
  4  5  2  0  0  0  0
  4 30  1  0  0  0  0
  5  6  1  0  0  0  0
  5 11  1  0  0  0  0
  6  7  2  0  0  0  0
  6 35  1  0  0  0  0
  7  8  1  0  0  0  0
  7 13  1  0  0  0  0
  8  9  2  0  0  0  0
  8 10  1  0  0  0  0
 10 11  1  0  0  0  0
 10 36  1  0  0  0  0
 11 12  2  0  0  0  0
 12 37  1  0  0  0  0
 13 14  1  0  0  0  0
 13 38  1  0  0  0  0
 13 39  1  0  0  0  0
 14 15  1  0  0  0  0
 14 21  1  0  0  0  0
 15 16  1  0  0  0  0
 15 40  1  0  0  0  0
 15 41  1  0  0  0  0
 16 17  2  0  0  0  0
 16 20  1  0  0  0  0
 17 18  1  0  0  0  0
 17 42  1  0  0  0  0
 18 19  2  0  0  0  0
 18 43  1  0  0  0  0
 19 20  1  0  0  0  0
 19 44  1  0  0  0  0
 21 22  2  0  0  0  0
 21 23  1  0  0  0  0
 23 24  1  0  0  0  0
 23 45  1  0  0  0  0
 24 25  1  0  0  0  0
 24 46  1  0  0  0  0
 24 47  1  0  0  0  0
 25 26  1  0  0  0  0
 25 29  1  0  0  0  0
 25 48  1  0  0  0  0
 26 27  1  0  0  0  0
 26 49  1  0  0  0  0
 26 50  1  0  0  0  0
 27 28  1  0  0  0  0
 27 51  1  0  0  0  0
 27 52  1  0  0  0  0
 28 29  1  0  0  0  0
 28 53  1  0  0  0  0
 28 54  1  0  0  0  0
 30 55  1  0  0  0  0
 30 56  1  0  0  0  0
 30 57  1  0  0  0  0
M  END
