
 OpenBabel10072620183D

 74 79  0  0  0  0  0  0  0  0999 V2000
    1.0699    1.5476   -3.2033 C   0  0  0  0  0  0  0  0  0  0  0  0
    1.5081    0.2555   -3.4642 C   0  0  0  0  0  0  0  0  0  0  0  0
    1.7887   -0.6086   -2.4044 C   0  0  0  0  0  0  0  0  0  0  0  0
    1.6280   -0.2055   -1.0595 C   0  0  0  0  0  0  0  0  0  0  0  0
    1.1739    1.1122   -0.8107 C   0  0  0  0  0  0  0  0  0  0  0  0
    0.9008    1.9723   -1.8862 C   0  0  0  0  0  0  0  0  0  0  0  0
    1.0123    1.5544    0.5096 C   0  0  0  0  0  0  0  0  0  0  0  0
    1.2879    0.7147    1.5879 C   0  0  0  0  0  0  0  0  0  0  0  0
    1.6816   -0.6052    1.3708 C   0  0  0  0  0  0  0  0  0  0  0  0
    1.8970   -1.0577    0.0442 C   0  0  0  0  0  0  0  0  0  0  0  0
    2.4164   -2.3569   -0.1629 N   0  0  0  0  0  0  0  0  0  0  0  0
    1.4959   -3.2002   -0.0929 N   0  0  0  0  0  0  0  0  0  0  0  0
    2.0351   -4.4886   -0.2150 C   0  0  0  0  0  0  0  0  0  0  0  0
    2.3284   -5.0296   -1.4679 C   0  0  0  0  0  0  0  0  0  0  0  0
    2.8331   -6.3361   -1.5703 C   0  0  0  0  0  0  0  0  0  0  0  0
    3.0470   -7.1193   -0.4263 C   0  0  0  0  0  0  0  0  0  0  0  0
    2.7559   -6.5585    0.8250 C   0  0  0  0  0  0  0  0  0  0  0  0
    2.2511   -5.2605    0.9275 C   0  0  0  0  0  0  0  0  0  0  0  0
    3.5045   -8.5128   -0.4417 C   0  0  0  0  0  0  0  0  0  0  0  0
    2.6092   -9.5093   -0.3893 C   0  0  0  0  0  0  0  0  0  0  0  0
    2.9652  -10.9293   -0.3119 C   0  0  0  0  0  0  0  0  0  0  0  0
    3.0003  -11.6520    0.8907 C   0  0  0  0  0  0  0  0  0  0  0  0
    3.1422  -13.0467    0.8876 C   0  0  0  0  0  0  0  0  0  0  0  0
    3.2819  -13.7418   -0.3154 C   0  0  0  0  0  0  0  0  0  0  0  0
    3.3096  -13.0204   -1.5106 C   0  0  0  0  0  0  0  0  0  0  0  0
    3.1591  -11.6277   -1.5110 C   0  0  0  0  0  0  0  0  0  0  0  0
    3.3232  -15.1461   -0.3444 N   0  0  0  0  0  0  0  0  0  0  0  0
    4.3321  -15.5656    0.2647 N   0  0  0  0  0  0  0  0  0  0  0  0
    4.3522  -16.9832    0.2772 C   0  0  0  0  0  0  0  0  0  0  0  0
    4.5771  -17.6977   -0.9284 C   0  0  0  0  0  0  0  0  0  0  0  0
    4.6950  -19.0871   -0.8885 C   0  0  0  0  0  0  0  0  0  0  0  0
    4.5166  -19.7779    0.3101 C   0  0  0  0  0  0  0  0  0  0  0  0
    4.2708  -19.0952    1.5088 C   0  0  0  0  0  0  0  0  0  0  0  0
    4.1266  -19.8048    2.7128 C   0  0  0  0  0  0  0  0  0  0  0  0
    3.9106  -19.1377    3.9173 C   0  0  0  0  0  0  0  0  0  0  0  0
    3.8270  -17.7518    3.9332 C   0  0  0  0  0  0  0  0  0  0  0  0
    3.9663  -17.0337    2.7430 C   0  0  0  0  0  0  0  0  0  0  0  0
    4.1921  -17.6818    1.5068 C   0  0  0  0  0  0  0  0  0  0  0  0
    4.9046  -17.0210   -2.1264 N   0  0  0  0  0  0  0  0  0  0  0  0
    2.8574  -10.8300    2.4519 S   0  0  0  0  0  0  0  0  0  0  0  0
    3.9853   -9.9362    2.6054 O   0  0  0  0  0  0  0  0  0  0  0  0
    1.4927  -10.3780    2.6026 O   0  0  0  0  0  0  0  0  0  0  0  0
    3.0973  -11.9714    3.5708 O   0  0  0  0  0  0  0  0  0  0  0  0
    3.2228   -6.9598   -3.1805 S   0  0  0  0  0  0  0  0  0  0  0  0
    4.6083   -7.3770   -3.1848 O   0  0  0  0  0  0  0  0  0  0  0  0
    2.1470   -7.8333   -3.5924 O   0  0  0  0  0  0  0  0  0  0  0  0
    3.1954   -5.6708   -4.1561 O   0  0  0  0  0  0  0  0  0  0  0  0
    2.0531   -1.3971    2.4819 N   0  0  0  0  0  0  0  0  0  0  0  0
    0.8546    2.2273   -4.0230 H   0  0  0  0  0  0  0  0  0  0  0  0
    1.6334   -0.0804   -4.4904 H   0  0  0  0  0  0  0  0  0  0  0  0
    2.1264   -1.6163   -2.6363 H   0  0  0  0  0  0  0  0  0  0  0  0
    0.5529    2.9872   -1.7032 H   0  0  0  0  0  0  0  0  0  0  0  0
    0.6850    2.5720    0.7134 H   0  0  0  0  0  0  0  0  0  0  0  0
    1.1939    1.0998    2.6003 H   0  0  0  0  0  0  0  0  0  0  0  0
    2.1535   -4.4227   -2.3535 H   0  0  0  0  0  0  0  0  0  0  0  0
    2.9146   -7.1343    1.7353 H   0  0  0  0  0  0  0  0  0  0  0  0
    2.0261   -4.8521    1.9092 H   0  0  0  0  0  0  0  0  0  0  0  0
    4.5785   -8.6781   -0.4333 H   0  0  0  0  0  0  0  0  0  0  0  0
    1.5371   -9.3072   -0.3837 H   0  0  0  0  0  0  0  0  0  0  0  0
    3.1207  -13.6128    1.8153 H   0  0  0  0  0  0  0  0  0  0  0  0
    3.4245  -13.5471   -2.4547 H   0  0  0  0  0  0  0  0  0  0  0  0
    3.1561  -11.0971   -2.4619 H   0  0  0  0  0  0  0  0  0  0  0  0
    4.9393  -19.6424   -1.7906 H   0  0  0  0  0  0  0  0  0  0  0  0
    4.6011  -20.8627    0.3036 H   0  0  0  0  0  0  0  0  0  0  0  0
    4.1935  -20.8908    2.7208 H   0  0  0  0  0  0  0  0  0  0  0  0
    3.8094  -19.7035    4.8394 H   0  0  0  0  0  0  0  0  0  0  0  0
    3.6596  -17.2276    4.8706 H   0  0  0  0  0  0  0  0  0  0  0  0
    3.8984  -15.9492    2.7863 H   0  0  0  0  0  0  0  0  0  0  0  0
    4.5474  -16.0668   -2.1070 H   0  0  0  0  0  0  0  0  0  0  0  0
    4.6320  -17.5226   -2.9651 H   0  0  0  0  0  0  0  0  0  0  0  0
    3.6622  -11.5792    4.2703 H   0  0  0  0  0  0  0  0  0  0  0  0
    4.0875   -5.5810   -4.5545 H   0  0  0  0  0  0  0  0  0  0  0  0
    1.4949   -1.2134    3.3100 H   0  0  0  0  0  0  0  0  0  0  0  0
    2.0620   -2.3835    2.2302 H   0  0  0  0  0  0  0  0  0  0  0  0
  1  2  2  0  0  0  0
  1  6  1  0  0  0  0
  1 49  1  0  0  0  0
  2  3  1  0  0  0  0
  2 50  1  0  0  0  0
  3  4  2  0  0  0  0
  3 51  1  0  0  0  0
  4  5  1  0  0  0  0
  4 10  1  0  0  0  0
  5  6  2  0  0  0  0
  5  7  1  0  0  0  0
  6 52  1  0  0  0  0
  7  8  2  0  0  0  0
  7 53  1  0  0  0  0
  8  9  1  0  0  0  0
  8 54  1  0  0  0  0
  9 10  2  0  0  0  0
  9 48  1  0  0  0  0
 10 11  1  0  0  0  0
 11 12  2  3  0  0  0
 12 13  1  0  0  0  0
 13 14  2  0  0  0  0
 13 18  1  0  0  0  0
 14 15  1  0  0  0  0
 14 55  1  0  0  0  0
 15 16  2  0  0  0  0
 15 44  1  0  0  0  0
 16 17  1  0  0  0  0
 16 19  1  0  0  0  0
 17 18  2  0  0  0  0
 17 56  1  0  0  0  0
 18 57  1  0  0  0  0
 19 20  2  0  0  0  0
 19 58  1  0  0  0  0
 20 21  1  0  0  0  0
 20 59  1  0  0  0  0
 21 22  2  0  0  0  0
 21 26  1  0  0  0  0
 22 23  1  0  0  0  0
 22 40  1  0  0  0  0
 23 24  2  0  0  0  0
 23 60  1  0  0  0  0
 24 25  1  0  0  0  0
 24 27  1  0  0  0  0
 25 26  2  0  0  0  0
 25 61  1  0  0  0  0
 26 62  1  0  0  0  0
 27 28  2  3  0  0  0
 28 29  1  0  0  0  0
 29 30  2  0  0  0  0
 29 38  1  0  0  0  0
 30 31  1  0  0  0  0
 30 39  1  0  0  0  0
 31 32  2  0  0  0  0
 31 63  1  0  0  0  0
 32 33  1  0  0  0  0
 32 64  1  0  0  0  0
 33 34  2  0  0  0  0
 33 38  1  0  0  0  0
 34 35  1  0  0  0  0
 34 65  1  0  0  0  0
 35 36  2  0  0  0  0
 35 66  1  0  0  0  0
 36 37  1  0  0  0  0
 36 67  1  0  0  0  0
 37 38  2  0  0  0  0
 37 68  1  0  0  0  0
 39 69  1  0  0  0  0
 39 70  1  0  0  0  0
 40 41  2  0  0  0  0
 40 42  2  0  0  0  0
 40 43  1  0  0  0  0
 43 71  1  0  0  0  0
 44 45  2  0  0  0  0
 44 46  2  0  0  0  0
 44 47  1  0  0  0  0
 47 72  1  0  0  0  0
 48 73  1  0  0  0  0
 48 74  1  0  0  0  0
M  END
