
 OpenBabel10072620013D

 64 65  0  0  0  0  0  0  0  0999 V2000
    4.0759    1.2029    5.5987 C   0  0  0  0  0  0  0  0  0  0  0  0
    4.0218    1.7092    4.1857 C   0  0  0  0  0  0  0  0  0  0  0  0
    4.7545    2.8304    3.7941 C   0  0  0  0  0  0  0  0  0  0  0  0
    4.7118    3.2798    2.5168 N   0  3  0  0  0  0  0  0  0  0  0  0
    3.9433    2.6561    1.5933 C   0  0  0  0  0  0  0  0  0  0  0  0
    3.1868    1.5433    1.9339 C   0  0  0  0  0  0  0  0  0  0  0  0
    3.2233    1.0690    3.2379 C   0  0  0  0  0  0  0  0  0  0  0  0
    5.5519    4.4348    2.1090 C   0  0  0  0  0  0  0  0  0  0  0  0
    4.7767    5.7362    2.2995 C   0  0  0  0  0  0  0  0  0  0  0  0
    5.5751    6.9826    1.8930 C   0  0  0  0  0  0  0  0  0  0  0  0
    5.9518    7.0760    0.4088 C   0  0  0  0  0  0  0  0  0  0  0  0
    4.7781    7.2329   -0.5635 C   0  0  0  0  0  0  0  0  0  0  0  0
    3.9548    8.5169   -0.4089 C   0  0  0  0  0  0  0  0  0  0  0  0
    4.7216    9.8356   -0.5692 C   0  0  0  0  0  0  0  0  0  0  0  0
    5.4277   10.0468   -1.9135 C   0  0  0  0  0  0  0  0  0  0  0  0
    4.5259    9.9955   -3.1511 C   0  0  0  0  0  0  0  0  0  0  0  0
    3.4568   11.0921   -3.2336 C   0  0  0  0  0  0  0  0  0  0  0  0
    3.9909   12.5197   -3.4049 C   0  0  0  0  0  0  0  0  0  0  0  0
    4.7010   12.7383   -4.7392 C   0  0  0  0  0  0  0  0  0  0  0  0
    5.2231   14.1258   -4.8056 N   0  3  0  0  0  0  0  0  0  0  0  0
    6.4720   14.3891   -4.3536 C   0  0  0  0  0  0  0  0  0  0  0  0
    7.0019   15.6690   -4.4377 C   0  0  0  0  0  0  0  0  0  0  0  0
    6.2378   16.6868   -4.9906 C   0  0  0  0  0  0  0  0  0  0  0  0
    4.9497   16.4136   -5.4517 C   0  0  0  0  0  0  0  0  0  0  0  0
    4.4671   15.1077   -5.3515 C   0  0  0  0  0  0  0  0  0  0  0  0
    4.1364   17.4747   -6.1331 C   0  0  0  0  0  0  0  0  0  0  0  0
    4.9084    1.6557    6.1479 H   0  0  0  0  0  0  0  0  0  0  0  0
    4.2253    0.1171    5.6111 H   0  0  0  0  0  0  0  0  0  0  0  0
    3.1472    1.4451    6.1246 H   0  0  0  0  0  0  0  0  0  0  0  0
    5.3928    3.3684    4.4897 H   0  0  0  0  0  0  0  0  0  0  0  0
    3.9428    3.0558    0.5838 H   0  0  0  0  0  0  0  0  0  0  0  0
    2.5751    1.0428    1.1858 H   0  0  0  0  0  0  0  0  0  0  0  0
    2.6312    0.1945    3.5097 H   0  0  0  0  0  0  0  0  0  0  0  0
    5.8392    4.2685    1.0654 H   0  0  0  0  0  0  0  0  0  0  0  0
    6.4640    4.4152    2.7154 H   0  0  0  0  0  0  0  0  0  0  0  0
    4.5097    5.8340    3.3598 H   0  0  0  0  0  0  0  0  0  0  0  0
    3.8265    5.6976    1.7559 H   0  0  0  0  0  0  0  0  0  0  0  0
    6.5005    7.0117    2.4828 H   0  0  0  0  0  0  0  0  0  0  0  0
    5.0063    7.8735    2.1829 H   0  0  0  0  0  0  0  0  0  0  0  0
    6.5222    6.1857    0.1211 H   0  0  0  0  0  0  0  0  0  0  0  0
    6.6421    7.9171    0.2773 H   0  0  0  0  0  0  0  0  0  0  0  0
    4.1048    6.3742   -0.4592 H   0  0  0  0  0  0  0  0  0  0  0  0
    5.1658    7.1774   -1.5872 H   0  0  0  0  0  0  0  0  0  0  0  0
    3.4727    8.5168    0.5750 H   0  0  0  0  0  0  0  0  0  0  0  0
    3.1325    8.4889   -1.1335 H   0  0  0  0  0  0  0  0  0  0  0  0
    5.4681    9.9181    0.2296 H   0  0  0  0  0  0  0  0  0  0  0  0
    4.0230   10.6626   -0.3989 H   0  0  0  0  0  0  0  0  0  0  0  0
    6.2163    9.2945   -2.0264 H   0  0  0  0  0  0  0  0  0  0  0  0
    5.9485   11.0107   -1.8839 H   0  0  0  0  0  0  0  0  0  0  0  0
    4.0292    9.0196   -3.1952 H   0  0  0  0  0  0  0  0  0  0  0  0
    5.1606   10.0376   -4.0432 H   0  0  0  0  0  0  0  0  0  0  0  0
    2.8269   11.0577   -2.3376 H   0  0  0  0  0  0  0  0  0  0  0  0
    2.7934   10.8630   -4.0770 H   0  0  0  0  0  0  0  0  0  0  0  0
    4.6528   12.7821   -2.5730 H   0  0  0  0  0  0  0  0  0  0  0  0
    3.1424   13.2137   -3.3403 H   0  0  0  0  0  0  0  0  0  0  0  0
    4.0209   12.5927   -5.5856 H   0  0  0  0  0  0  0  0  0  0  0  0
    5.5570   12.0684   -4.8760 H   0  0  0  0  0  0  0  0  0  0  0  0
    7.0383   13.5652   -3.9298 H   0  0  0  0  0  0  0  0  0  0  0  0
    8.0112   15.8710   -4.0838 H   0  0  0  0  0  0  0  0  0  0  0  0
    6.6559   17.6909   -5.0701 H   0  0  0  0  0  0  0  0  0  0  0  0
    3.4828   14.8332   -5.7199 H   0  0  0  0  0  0  0  0  0  0  0  0
    4.3700   18.4689   -5.7383 H   0  0  0  0  0  0  0  0  0  0  0  0
    3.0669   17.3046   -5.9746 H   0  0  0  0  0  0  0  0  0  0  0  0
    4.3401   17.4613   -7.2089 H   0  0  0  0  0  0  0  0  0  0  0  0
  1  2  1  0  0  0  0
  1 27  1  0  0  0  0
  1 28  1  0  0  0  0
  1 29  1  0  0  0  0
  2  3  2  0  0  0  0
  2  7  1  0  0  0  0
  3  4  1  0  0  0  0
  3 30  1  0  0  0  0
  4  5  2  0  0  0  0
  4  8  1  0  0  0  0
  5  6  1  0  0  0  0
  5 31  1  0  0  0  0
  6  7  2  0  0  0  0
  6 32  1  0  0  0  0
  7 33  1  0  0  0  0
  8  9  1  0  0  0  0
  8 34  1  0  0  0  0
  8 35  1  0  0  0  0
  9 10  1  0  0  0  0
  9 36  1  0  0  0  0
  9 37  1  0  0  0  0
 10 11  1  0  0  0  0
 10 38  1  0  0  0  0
 10 39  1  0  0  0  0
 11 12  1  0  0  0  0
 11 40  1  0  0  0  0
 11 41  1  0  0  0  0
 12 13  1  0  0  0  0
 12 42  1  0  0  0  0
 12 43  1  0  0  0  0
 13 14  1  0  0  0  0
 13 44  1  0  0  0  0
 13 45  1  0  0  0  0
 14 15  1  0  0  0  0
 14 46  1  0  0  0  0
 14 47  1  0  0  0  0
 15 16  1  0  0  0  0
 15 48  1  0  0  0  0
 15 49  1  0  0  0  0
 16 17  1  0  0  0  0
 16 50  1  0  0  0  0
 16 51  1  0  0  0  0
 17 18  1  0  0  0  0
 17 52  1  0  0  0  0
 17 53  1  0  0  0  0
 18 19  1  0  0  0  0
 18 54  1  0  0  0  0
 18 55  1  0  0  0  0
 19 20  1  0  0  0  0
 19 56  1  0  0  0  0
 19 57  1  0  0  0  0
 20 21  2  0  0  0  0
 20 25  1  0  0  0  0
 21 22  1  0  0  0  0
 21 58  1  0  0  0  0
 22 23  2  0  0  0  0
 22 59  1  0  0  0  0
 23 24  1  0  0  0  0
 23 60  1  0  0  0  0
 24 25  2  0  0  0  0
 24 26  1  0  0  0  0
 25 61  1  0  0  0  0
 26 62  1  0  0  0  0
 26 63  1  0  0  0  0
 26 64  1  0  0  0  0
M  CHG  2   4   1  20   1
M  END
