
 OpenBabel10072619433D

 43 45  0  0  1  0  0  0  0  0999 V2000
    1.0344    0.3386   -1.1703 C   0  0  0  0  0  0  0  0  0  0  0  0
    2.5166    0.3060   -0.9307 C   0  0  0  0  0  0  0  0  0  0  0  0
    3.3633    1.1643   -1.6268 C   0  0  0  0  0  0  0  0  0  0  0  0
    4.7377    1.0968   -1.4257 C   0  0  0  0  0  0  0  0  0  0  0  0
    5.2761    0.2003   -0.5620 N   0  3  0  0  0  0  0  0  0  0  0  0
    4.4646   -0.6512    0.1163 C   0  0  0  0  0  0  0  0  0  0  0  0
    3.0846   -0.6182   -0.0583 C   0  0  0  0  0  0  0  0  0  0  0  0
    6.7683    0.1600   -0.3817 C   0  0  3  0  0  0  0  0  0  0  0  0
    7.1087    0.5306    1.0573 C   0  0  0  0  0  0  0  0  0  0  0  0
    7.3410   -1.1957   -0.7713 C   0  0  0  0  0  0  0  0  0  0  0  0
    6.6360   -2.2044   -0.7810 O   0  0  0  0  0  0  0  0  0  0  0  0
    8.7884   -1.3219   -1.1340 C   0  0  0  0  0  0  0  0  0  0  0  0
    9.6370   -0.2223   -1.3071 C   0  0  0  0  0  0  0  0  0  0  0  0
   10.9702   -0.4144   -1.6969 C   0  0  0  0  0  0  0  0  0  0  0  0
   11.4888   -1.6990   -1.9177 C   0  0  0  0  0  0  0  0  0  0  0  0
   10.6333   -2.7925   -1.7179 C   0  0  0  0  0  0  0  0  0  0  0  0
    9.3010   -2.6102   -1.3326 C   0  0  0  0  0  0  0  0  0  0  0  0
   12.8823   -1.8963   -2.3505 C   0  0  0  0  0  0  0  0  0  0  0  0
   13.9540   -1.3291   -1.6399 C   0  0  0  0  0  0  0  0  0  0  0  0
   15.2764   -1.5322   -2.0455 C   0  0  0  0  0  0  0  0  0  0  0  0
   15.5495   -2.3056   -3.1707 C   0  0  0  0  0  0  0  0  0  0  0  0
   14.5028   -2.8725   -3.8924 C   0  0  0  0  0  0  0  0  0  0  0  0
   13.1817   -2.6678   -3.4865 C   0  0  0  0  0  0  0  0  0  0  0  0
    0.6842    1.3732   -1.2506 H   0  0  0  0  0  0  0  0  0  0  0  0
    0.4853   -0.1295   -0.3465 H   0  0  0  0  0  0  0  0  0  0  0  0
    0.7940   -0.1939   -2.0959 H   0  0  0  0  0  0  0  0  0  0  0  0
    2.9580    1.8873   -2.3334 H   0  0  0  0  0  0  0  0  0  0  0  0
    5.4090    1.7633   -1.9599 H   0  0  0  0  0  0  0  0  0  0  0  0
    4.9249   -1.3711    0.7882 H   0  0  0  0  0  0  0  0  0  0  0  0
    2.4605   -1.3249    0.4859 H   0  0  0  0  0  0  0  0  0  0  0  0
    7.1649    0.9212   -1.0600 H   0  0  0  0  0  0  0  0  0  0  0  0
    6.8198   -0.2599    1.7585 H   0  0  0  0  0  0  0  0  0  0  0  0
    6.5975    1.4519    1.3565 H   0  0  0  0  0  0  0  0  0  0  0  0
    8.1861    0.6860    1.1769 H   0  0  0  0  0  0  0  0  0  0  0  0
    9.3135    0.8035   -1.1700 H   0  0  0  0  0  0  0  0  0  0  0  0
   11.6084    0.4564   -1.8500 H   0  0  0  0  0  0  0  0  0  0  0  0
   11.0050   -3.8067   -1.8605 H   0  0  0  0  0  0  0  0  0  0  0  0
    8.6758   -3.4929   -1.1965 H   0  0  0  0  0  0  0  0  0  0  0  0
   13.7716   -0.7364   -0.7463 H   0  0  0  0  0  0  0  0  0  0  0  0
   16.0938   -1.0933   -1.4780 H   0  0  0  0  0  0  0  0  0  0  0  0
   16.5777   -2.4696   -3.4834 H   0  0  0  0  0  0  0  0  0  0  0  0
   14.7132   -3.4770   -4.7714 H   0  0  0  0  0  0  0  0  0  0  0  0
   12.3832   -3.1169   -4.0737 H   0  0  0  0  0  0  0  0  0  0  0  0
  1  2  1  0  0  0  0
  1 24  1  0  0  0  0
  1 25  1  0  0  0  0
  1 26  1  0  0  0  0
  2  3  2  0  0  0  0
  2  7  1  0  0  0  0
  3  4  1  0  0  0  0
  3 27  1  0  0  0  0
  4  5  2  0  0  0  0
  4 28  1  0  0  0  0
  5  6  1  0  0  0  0
  5  8  1  0  0  0  0
  6  7  2  0  0  0  0
  6 29  1  0  0  0  0
  7 30  1  0  0  0  0
  8  9  1  0  0  0  0
  8 10  1  0  0  0  0
  8 31  1  0  0  0  0
  9 32  1  0  0  0  0
  9 33  1  0  0  0  0
  9 34  1  0  0  0  0
 10 11  2  0  0  0  0
 10 12  1  0  0  0  0
 12 13  2  0  0  0  0
 12 17  1  0  0  0  0
 13 14  1  0  0  0  0
 13 35  1  0  0  0  0
 14 15  2  0  0  0  0
 14 36  1  0  0  0  0
 15 16  1  0  0  0  0
 15 18  1  0  0  0  0
 16 17  2  0  0  0  0
 16 37  1  0  0  0  0
 17 38  1  0  0  0  0
 18 19  2  0  0  0  0
 18 23  1  0  0  0  0
 19 20  1  0  0  0  0
 19 39  1  0  0  0  0
 20 21  2  0  0  0  0
 20 40  1  0  0  0  0
 21 22  1  0  0  0  0
 21 41  1  0  0  0  0
 22 23  2  0  0  0  0
 22 42  1  0  0  0  0
 23 43  1  0  0  0  0
M  CHG  1   5   1
M  END
