
 OpenBabel10072619533D

 63 65  0  0  0  0  0  0  0  0999 V2000
    0.8505    1.5132   -1.0028 C   0  0  0  0  0  0  0  0  0  0  0  0
    1.1443    0.8840    0.3522 C   0  0  0  0  0  0  0  0  0  0  0  0
    1.6826   -0.5251    0.2204 C   0  0  0  0  0  0  0  0  0  0  0  0
    0.7596   -1.5854    0.2418 C   0  0  0  0  0  0  0  0  0  0  0  0
    1.1883   -2.9049    0.1408 C   0  0  0  0  0  0  0  0  0  0  0  0
    2.5414   -3.1814   -0.0222 C   0  0  0  0  0  0  0  0  0  0  0  0
    3.4886   -2.1448   -0.0823 C   0  0  0  0  0  0  0  0  0  0  0  0
    3.0623   -0.8120    0.1034 C   0  0  0  0  0  0  0  0  0  0  0  0
    3.9685    0.2739    0.0530 N   0  0  0  0  0  0  0  0  0  0  0  0
    5.0647    0.5174    0.8829 C   0  0  0  0  0  0  0  0  0  0  0  0
    5.5189   -0.3962    2.2190 S   0  0  0  0  0  0  0  0  0  0  0  0
    5.7840    1.6485    0.4455 N   0  0  0  0  0  0  0  0  0  0  0  0
    7.2577    1.6762    0.4427 C   0  0  0  0  0  0  0  0  0  0  0  0
    7.8994    0.5877   -0.4249 C   0  0  0  0  0  0  0  0  0  0  0  0
    7.4474    0.5990   -1.8921 C   0  0  0  0  0  0  0  0  0  0  0  0
    7.6921    1.8578   -2.6160 N   0  0  0  0  0  0  0  0  0  0  0  0
    9.1324    2.1310   -2.7954 C   0  0  0  0  0  0  0  0  0  0  0  0
    9.4036    3.3742   -3.6780 C   0  0  0  0  0  0  0  0  0  0  0  0
    8.7404    3.3625   -4.9960 N   0  0  0  0  0  0  0  0  0  0  0  0
    7.3097    3.0588   -4.8037 C   0  0  0  0  0  0  0  0  0  0  0  0
    7.0215    1.8137   -3.9339 C   0  0  0  0  0  0  0  0  0  0  0  0
    9.3755    2.4143   -5.9084 C   0  0  0  0  0  0  0  0  0  0  0  0
    5.1264    2.9630    0.4178 C   0  0  0  0  0  0  0  0  0  0  0  0
    5.4236    3.7413    1.6694 C   0  0  0  0  0  0  0  0  0  0  0  0
    5.0327    3.4707    2.9686 C   0  0  0  0  0  0  0  0  0  0  0  0
    5.5219    4.4339    3.8973 C   0  0  0  0  0  0  0  0  0  0  0  0
    6.2501    5.4215    3.2777 C   0  0  0  0  0  0  0  0  0  0  0  0
    6.3354    5.1925    1.5858 S   0  0  0  0  0  0  0  0  0  0  0  0
    4.9009   -2.5329   -0.4280 C   0  0  0  0  0  0  0  0  0  0  0  0
    0.4537    2.5251   -0.8693 H   0  0  0  0  0  0  0  0  0  0  0  0
    0.1079    0.9282   -1.5569 H   0  0  0  0  0  0  0  0  0  0  0  0
    1.7530    1.5819   -1.6197 H   0  0  0  0  0  0  0  0  0  0  0  0
    0.2255    0.8701    0.9517 H   0  0  0  0  0  0  0  0  0  0  0  0
    1.8426    1.5112    0.9188 H   0  0  0  0  0  0  0  0  0  0  0  0
   -0.3049   -1.3855    0.3454 H   0  0  0  0  0  0  0  0  0  0  0  0
    0.4665   -3.7167    0.1671 H   0  0  0  0  0  0  0  0  0  0  0  0
    2.8590   -4.2165   -0.1368 H   0  0  0  0  0  0  0  0  0  0  0  0
    3.6136    1.0938   -0.4095 H   0  0  0  0  0  0  0  0  0  0  0  0
    7.6162    1.5936    1.4746 H   0  0  0  0  0  0  0  0  0  0  0  0
    7.5886    2.6503    0.0639 H   0  0  0  0  0  0  0  0  0  0  0  0
    7.6730   -0.4005   -0.0095 H   0  0  0  0  0  0  0  0  0  0  0  0
    8.9896    0.6885   -0.3679 H   0  0  0  0  0  0  0  0  0  0  0  0
    6.3716    0.3857   -1.9121 H   0  0  0  0  0  0  0  0  0  0  0  0
    7.9323   -0.2376   -2.4129 H   0  0  0  0  0  0  0  0  0  0  0  0
    9.6384    1.2607   -3.2318 H   0  0  0  0  0  0  0  0  0  0  0  0
    9.5969    2.3199   -1.8215 H   0  0  0  0  0  0  0  0  0  0  0  0
   10.4854    3.5067   -3.8027 H   0  0  0  0  0  0  0  0  0  0  0  0
    9.0617    4.2660   -3.1363 H   0  0  0  0  0  0  0  0  0  0  0  0
    6.8143    2.9495   -5.7765 H   0  0  0  0  0  0  0  0  0  0  0  0
    6.8384    3.9314   -4.3321 H   0  0  0  0  0  0  0  0  0  0  0  0
    7.3177    0.9117   -4.4855 H   0  0  0  0  0  0  0  0  0  0  0  0
    5.9364    1.7555   -3.7827 H   0  0  0  0  0  0  0  0  0  0  0  0
   10.4242    2.6865   -6.0712 H   0  0  0  0  0  0  0  0  0  0  0  0
    8.8904    2.4462   -6.8901 H   0  0  0  0  0  0  0  0  0  0  0  0
    9.3471    1.3803   -5.5515 H   0  0  0  0  0  0  0  0  0  0  0  0
    4.0404    2.8527    0.3494 H   0  0  0  0  0  0  0  0  0  0  0  0
    5.4615    3.4839   -0.4862 H   0  0  0  0  0  0  0  0  0  0  0  0
    4.4393    2.6078    3.2446 H   0  0  0  0  0  0  0  0  0  0  0  0
    5.3500    4.3983    4.9676 H   0  0  0  0  0  0  0  0  0  0  0  0
    6.7349    6.2727    3.7373 H   0  0  0  0  0  0  0  0  0  0  0  0
    4.8986   -3.2925   -1.2180 H   0  0  0  0  0  0  0  0  0  0  0  0
    5.4136   -2.9478    0.4435 H   0  0  0  0  0  0  0  0  0  0  0  0
    5.4774   -1.6944   -0.8251 H   0  0  0  0  0  0  0  0  0  0  0  0
  1  2  1  0  0  0  0
  1 30  1  0  0  0  0
  1 31  1  0  0  0  0
  1 32  1  0  0  0  0
  2  3  1  0  0  0  0
  2 33  1  0  0  0  0
  2 34  1  0  0  0  0
  3  4  2  0  0  0  0
  3  8  1  0  0  0  0
  4  5  1  0  0  0  0
  4 35  1  0  0  0  0
  5  6  2  0  0  0  0
  5 36  1  0  0  0  0
  6  7  1  0  0  0  0
  6 37  1  0  0  0  0
  7  8  2  0  0  0  0
  7 29  1  0  0  0  0
  8  9  1  0  0  0  0
  9 10  1  0  0  0  0
  9 38  1  0  0  0  0
 10 11  2  0  0  0  0
 10 12  1  0  0  0  0
 12 13  1  0  0  0  0
 12 23  1  0  0  0  0
 13 14  1  0  0  0  0
 13 39  1  0  0  0  0
 13 40  1  0  0  0  0
 14 15  1  0  0  0  0
 14 41  1  0  0  0  0
 14 42  1  0  0  0  0
 15 16  1  0  0  0  0
 15 43  1  0  0  0  0
 15 44  1  0  0  0  0
 16 17  1  0  0  0  0
 16 21  1  0  0  0  0
 17 18  1  0  0  0  0
 17 45  1  0  0  0  0
 17 46  1  0  0  0  0
 18 19  1  0  0  0  0
 18 47  1  0  0  0  0
 18 48  1  0  0  0  0
 19 20  1  0  0  0  0
 19 22  1  0  0  0  0
 20 21  1  0  0  0  0
 20 49  1  0  0  0  0
 20 50  1  0  0  0  0
 21 51  1  0  0  0  0
 21 52  1  0  0  0  0
 22 53  1  0  0  0  0
 22 54  1  0  0  0  0
 22 55  1  0  0  0  0
 23 24  1  0  0  0  0
 23 56  1  0  0  0  0
 23 57  1  0  0  0  0
 24 25  2  0  0  0  0
 24 28  1  0  0  0  0
 25 26  1  0  0  0  0
 25 58  1  0  0  0  0
 26 27  2  0  0  0  0
 26 59  1  0  0  0  0
 27 28  1  0  0  0  0
 27 60  1  0  0  0  0
 29 61  1  0  0  0  0
 29 62  1  0  0  0  0
 29 63  1  0  0  0  0
M  END
