
 OpenBabel10072619443D

 61 64  0  0  0  0  0  0  0  0999 V2000
    6.3261   -1.1093   -3.4963 C   0  0  0  0  0  0  0  0  0  0  0  0
    7.5422   -1.1801   -2.6187 C   0  0  0  0  0  0  0  0  0  0  0  0
    8.7818   -0.7720   -3.0913 C   0  0  0  0  0  0  0  0  0  0  0  0
    9.9147   -0.8005   -2.2966 C   0  0  0  0  0  0  0  0  0  0  0  0
    9.8060   -1.2292   -0.9885 C   0  0  0  0  0  0  0  0  0  0  0  0
    8.5750   -1.6517   -0.4857 C   0  0  0  0  0  0  0  0  0  0  0  0
    7.4720   -1.6160   -1.2909 C   0  0  0  0  0  0  0  0  0  0  0  0
    6.2201   -2.0328   -0.7661 O   0  0  0  0  0  0  0  0  0  0  0  0
    6.1274   -2.4804    0.5783 C   0  0  0  0  0  0  0  0  0  0  0  0
    4.6898   -2.8668    0.8857 C   0  0  0  0  0  0  0  0  0  0  0  0
    4.2823   -3.9085    0.0108 O   0  0  0  0  0  0  0  0  0  0  0  0
    4.9775   -5.1467    0.0089 C   0  0  0  0  0  0  0  0  0  0  0  0
    4.5780   -6.1570   -0.8434 C   0  0  0  0  0  0  0  0  0  0  0  0
    5.2507   -7.3664   -0.8146 C   0  0  0  0  0  0  0  0  0  0  0  0
    6.3280   -7.5881    0.0320 C   0  0  0  0  0  0  0  0  0  0  0  0
    6.7096   -6.5386    0.8753 C   0  0  0  0  0  0  0  0  0  0  0  0
    6.0608   -5.3365    0.8673 C   0  0  0  0  0  0  0  0  0  0  0  0
    7.0183   -8.9209    0.0612 C   0  0  0  0  0  0  0  0  0  0  0  0
    6.5933   -9.8884    0.9179 C   0  0  0  0  0  0  0  0  0  0  0  0
    5.4196   -9.6200    1.8457 C   0  0  0  0  0  0  0  0  0  0  0  0
    4.4459   -9.3973    2.6153 N   0  0  0  0  0  0  0  0  0  0  0  0
    7.2922  -11.2379    0.9475 C   0  0  0  0  0  0  0  0  0  0  0  0
    8.3063  -11.5323    0.1765 N   0  0  0  0  0  0  0  0  0  0  0  0
    8.7688  -12.8092    0.3717 N   0  0  0  0  0  0  0  0  0  0  0  0
    8.0789  -13.4491    1.2842 C   0  0  0  0  0  0  0  0  0  0  0  0
    6.8186  -12.5189    2.0026 S   0  0  0  0  0  0  0  0  0  0  0  0
    8.3568  -14.8421    1.6627 N   0  0  0  0  0  0  0  0  0  0  0  0
    7.8770  -15.3635    2.9507 C   0  0  0  0  0  0  0  0  0  0  0  0
    7.2220  -14.6104    3.7374 O   0  0  0  0  0  0  0  0  0  0  0  0
    8.1615  -16.7863    3.3358 C   0  0  0  0  0  0  0  0  0  0  0  0
    8.3029  -17.1447    4.6693 C   0  0  0  0  0  0  0  0  0  0  0  0
    8.5384  -18.4529    5.0554 C   0  0  0  0  0  0  0  0  0  0  0  0
    8.6160  -19.4346    4.0875 C   0  0  0  0  0  0  0  0  0  0  0  0
    8.4843  -19.1052    2.7381 C   0  0  0  0  0  0  0  0  0  0  0  0
    8.2545  -17.8065    2.3825 C   0  0  0  0  0  0  0  0  0  0  0  0
    3.4924   -5.9581   -1.7368 O   0  0  0  0  0  0  0  0  0  0  0  0
    3.0888   -7.0045   -2.6078 C   0  0  0  0  0  0  0  0  0  0  0  0
    6.6058   -0.7518   -4.4652 H   0  0  0  0  0  0  0  0  0  0  0  0
    5.6115   -0.4415   -3.0623 H   0  0  0  0  0  0  0  0  0  0  0  0
    5.8943   -2.0841   -3.5867 H   0  0  0  0  0  0  0  0  0  0  0  0
    8.8612   -0.4374   -4.0644 H   0  0  0  0  0  0  0  0  0  0  0  0
   10.8278   -0.5054   -2.6763 H   0  0  0  0  0  0  0  0  0  0  0  0
   10.6393   -1.2371   -0.3797 H   0  0  0  0  0  0  0  0  0  0  0  0
    8.4983   -1.9885    0.4867 H   0  0  0  0  0  0  0  0  0  0  0  0
    6.4344   -1.6955    1.2376 H   0  0  0  0  0  0  0  0  0  0  0  0
    6.7624   -3.3305    0.7158 H   0  0  0  0  0  0  0  0  0  0  0  0
    4.0548   -2.0167    0.7482 H   0  0  0  0  0  0  0  0  0  0  0  0
    4.6199   -3.2041    1.8987 H   0  0  0  0  0  0  0  0  0  0  0  0
    4.9420   -8.1260   -1.4414 H   0  0  0  0  0  0  0  0  0  0  0  0
    7.5028   -6.6766    1.5209 H   0  0  0  0  0  0  0  0  0  0  0  0
    6.3696   -4.5747    1.4914 H   0  0  0  0  0  0  0  0  0  0  0  0
    7.8152   -9.1032   -0.5687 H   0  0  0  0  0  0  0  0  0  0  0  0
    8.8641  -15.4258    1.0536 H   0  0  0  0  0  0  0  0  0  0  0  0
    8.2303  -16.4141    5.3944 H   0  0  0  0  0  0  0  0  0  0  0  0
    8.6544  -18.6912    6.0528 H   0  0  0  0  0  0  0  0  0  0  0  0
    8.7722  -20.4167    4.3634 H   0  0  0  0  0  0  0  0  0  0  0  0
    8.5600  -19.8370    2.0144 H   0  0  0  0  0  0  0  0  0  0  0  0
    8.1464  -17.5712    1.3835 H   0  0  0  0  0  0  0  0  0  0  0  0
    2.2624   -6.6750   -3.2022 H   0  0  0  0  0  0  0  0  0  0  0  0
    2.7956   -7.8562   -2.0302 H   0  0  0  0  0  0  0  0  0  0  0  0
    3.9043   -7.2709   -3.2472 H   0  0  0  0  0  0  0  0  0  0  0  0
  1  2  1  0  0  0  0
  1 38  1  0  0  0  0
  1 39  1  0  0  0  0
  1 40  1  0  0  0  0
  2  3  2  0  0  0  0
  2  7  1  0  0  0  0
  3  4  1  0  0  0  0
  3 41  1  0  0  0  0
  4  5  2  0  0  0  0
  4 42  1  0  0  0  0
  5  6  1  0  0  0  0
  5 43  1  0  0  0  0
  6  7  2  0  0  0  0
  6 44  1  0  0  0  0
  7  8  1  0  0  0  0
  8  9  1  0  0  0  0
  9 10  1  0  0  0  0
  9 45  1  0  0  0  0
  9 46  1  0  0  0  0
 10 11  1  0  0  0  0
 10 47  1  0  0  0  0
 10 48  1  0  0  0  0
 11 12  1  0  0  0  0
 12 13  2  0  0  0  0
 12 17  1  0  0  0  0
 13 14  1  0  0  0  0
 13 36  1  0  0  0  0
 14 15  2  0  0  0  0
 14 49  1  0  0  0  0
 15 16  1  0  0  0  0
 15 18  1  0  0  0  0
 16 17  2  0  0  0  0
 16 50  1  0  0  0  0
 17 51  1  0  0  0  0
 18 19  2  0  0  0  0
 18 52  1  0  0  0  0
 19 20  1  0  0  0  0
 19 22  1  0  0  0  0
 20 21  3  0  0  0  0
 22 23  2  0  0  0  0
 22 26  1  0  0  0  0
 23 24  1  0  0  0  0
 24 25  2  0  0  0  0
 25 26  1  0  0  0  0
 25 27  1  0  0  0  0
 27 28  1  0  0  0  0
 27 53  1  0  0  0  0
 28 29  2  0  0  0  0
 28 30  1  0  0  0  0
 30 31  2  0  0  0  0
 30 35  1  0  0  0  0
 31 32  1  0  0  0  0
 31 54  1  0  0  0  0
 32 33  2  0  0  0  0
 32 55  1  0  0  0  0
 33 34  1  0  0  0  0
 33 56  1  0  0  0  0
 34 35  2  0  0  0  0
 34 57  1  0  0  0  0
 35 58  1  0  0  0  0
 36 37  1  0  0  0  0
 37 59  1  0  0  0  0
 37 60  1  0  0  0  0
 37 61  1  0  0  0  0
M  END
