
 OpenBabel10072616323D

 54 54  0  0  0  0  0  0  0  0999 V2000
    1.4300    0.2261    0.0676 C   0  0  0  0  0  0  0  0  0  0  0  0
    2.7822    0.0838    0.4849 O   0  0  0  0  0  0  0  0  0  0  0  0
    3.3189   -1.1675    0.3675 C   0  0  0  0  0  0  0  0  0  0  0  0
    2.8456   -2.1813   -0.4620 C   0  0  0  0  0  0  0  0  0  0  0  0
    3.4731   -3.4440   -0.4890 C   0  0  0  0  0  0  0  0  0  0  0  0
    4.5916   -3.6811    0.3321 C   0  0  0  0  0  0  0  0  0  0  0  0
    5.0840   -2.6457    1.1315 C   0  0  0  0  0  0  0  0  0  0  0  0
    4.4517   -1.3996    1.1439 C   0  0  0  0  0  0  0  0  0  0  0  0
    5.1256   -4.9410    0.2759 O   0  0  0  0  0  0  0  0  0  0  0  0
    6.2049   -5.2371    1.1682 C   0  0  0  0  0  0  0  0  0  0  0  0
    6.5981   -6.7084    1.0121 C   0  0  0  0  0  0  0  0  0  0  0  0
    7.4194   -6.8639   -0.1904 N   0  0  0  0  0  0  0  0  0  0  0  0
    7.7588   -8.0434   -0.5455 C   0  0  0  0  0  0  0  0  0  0  0  0
    7.4955   -9.2345    0.0354 N   0  0  0  0  0  0  0  0  0  0  0  0
    8.4894   -8.2192   -1.6661 N   0  0  0  0  0  0  0  0  0  0  0  0
    2.9010   -4.5241   -1.3833 C   0  0  0  0  0  0  0  0  0  0  0  0
    2.0318   -5.4785   -0.6851 N   0  0  0  0  0  0  0  0  0  0  0  0
    0.7919   -4.8789   -0.1970 C   0  0  0  0  0  0  0  0  0  0  0  0
   -0.1035   -5.9575    0.4156 C   0  0  0  0  0  0  0  0  0  0  0  0
   -1.3794   -5.3489    1.0009 C   0  0  0  0  0  0  0  0  0  0  0  0
   -2.2809   -6.4183    1.6153 C   0  0  0  0  0  0  0  0  0  0  0  0
   -3.4447   -5.7579    2.2018 N   0  0  0  0  0  0  0  0  0  0  0  0
   -4.3550   -6.4872    2.7247 C   0  0  0  0  0  0  0  0  0  0  0  0
   -4.4341   -7.8313    2.8381 N   0  0  0  0  0  0  0  0  0  0  0  0
   -5.4501   -5.9126    3.2678 N   0  0  0  0  0  0  0  0  0  0  0  0
    1.0812    1.2066    0.4038 H   0  0  0  0  0  0  0  0  0  0  0  0
    0.7864   -0.5306    0.5284 H   0  0  0  0  0  0  0  0  0  0  0  0
    1.3508    0.1976   -1.0233 H   0  0  0  0  0  0  0  0  0  0  0  0
    1.9808   -2.0203   -1.0992 H   0  0  0  0  0  0  0  0  0  0  0  0
    5.9590   -2.7717    1.7600 H   0  0  0  0  0  0  0  0  0  0  0  0
    4.8416   -0.6089    1.7801 H   0  0  0  0  0  0  0  0  0  0  0  0
    5.8705   -5.0820    2.2010 H   0  0  0  0  0  0  0  0  0  0  0  0
    7.0691   -4.5975    0.9506 H   0  0  0  0  0  0  0  0  0  0  0  0
    5.6945   -7.3253    0.9458 H   0  0  0  0  0  0  0  0  0  0  0  0
    7.1826   -7.0113    1.8884 H   0  0  0  0  0  0  0  0  0  0  0  0
    7.1853   -9.1739    0.9957 H   0  0  0  0  0  0  0  0  0  0  0  0
    8.2626   -9.8892   -0.0593 H   0  0  0  0  0  0  0  0  0  0  0  0
    8.5405   -7.3376   -2.1706 H   0  0  0  0  0  0  0  0  0  0  0  0
    8.1028   -8.9381   -2.2660 H   0  0  0  0  0  0  0  0  0  0  0  0
    3.7275   -5.0763   -1.8486 H   0  0  0  0  0  0  0  0  0  0  0  0
    2.3619   -4.0732   -2.2266 H   0  0  0  0  0  0  0  0  0  0  0  0
    2.5638   -5.8604    0.0975 H   0  0  0  0  0  0  0  0  0  0  0  0
    0.2571   -4.3980   -1.0234 H   0  0  0  0  0  0  0  0  0  0  0  0
    1.0021   -4.1195    0.5631 H   0  0  0  0  0  0  0  0  0  0  0  0
    0.4400   -6.4845    1.2084 H   0  0  0  0  0  0  0  0  0  0  0  0
   -0.3652   -6.7023   -0.3459 H   0  0  0  0  0  0  0  0  0  0  0  0
   -1.9298   -4.8119    0.2192 H   0  0  0  0  0  0  0  0  0  0  0  0
   -1.1167   -4.6067    1.7651 H   0  0  0  0  0  0  0  0  0  0  0  0
   -1.7250   -6.9636    2.3873 H   0  0  0  0  0  0  0  0  0  0  0  0
   -2.5912   -7.1238    0.8357 H   0  0  0  0  0  0  0  0  0  0  0  0
   -3.5620   -8.3141    2.6649 H   0  0  0  0  0  0  0  0  0  0  0  0
   -4.8370   -8.1158    3.7237 H   0  0  0  0  0  0  0  0  0  0  0  0
   -5.4554   -4.9204    3.0499 H   0  0  0  0  0  0  0  0  0  0  0  0
   -6.3073   -6.3478    2.9493 H   0  0  0  0  0  0  0  0  0  0  0  0
  1  2  1  0  0  0  0
  1 26  1  0  0  0  0
  1 27  1  0  0  0  0
  1 28  1  0  0  0  0
  2  3  1  0  0  0  0
  3  4  2  0  0  0  0
  3  8  1  0  0  0  0
  4  5  1  0  0  0  0
  4 29  1  0  0  0  0
  5  6  2  0  0  0  0
  5 16  1  0  0  0  0
  6  7  1  0  0  0  0
  6  9  1  0  0  0  0
  7  8  2  0  0  0  0
  7 30  1  0  0  0  0
  8 31  1  0  0  0  0
  9 10  1  0  0  0  0
 10 11  1  0  0  0  0
 10 32  1  0  0  0  0
 10 33  1  0  0  0  0
 11 12  1  0  0  0  0
 11 34  1  0  0  0  0
 11 35  1  0  0  0  0
 12 13  2  0  0  0  0
 13 14  1  0  0  0  0
 13 15  1  0  0  0  0
 14 36  1  0  0  0  0
 14 37  1  0  0  0  0
 15 38  1  0  0  0  0
 15 39  1  0  0  0  0
 16 17  1  0  0  0  0
 16 40  1  0  0  0  0
 16 41  1  0  0  0  0
 17 18  1  0  0  0  0
 17 42  1  0  0  0  0
 18 19  1  0  0  0  0
 18 43  1  0  0  0  0
 18 44  1  0  0  0  0
 19 20  1  0  0  0  0
 19 45  1  0  0  0  0
 19 46  1  0  0  0  0
 20 21  1  0  0  0  0
 20 47  1  0  0  0  0
 20 48  1  0  0  0  0
 21 22  1  0  0  0  0
 21 49  1  0  0  0  0
 21 50  1  0  0  0  0
 22 23  2  0  0  0  0
 23 24  1  0  0  0  0
 23 25  1  0  0  0  0
 24 51  1  0  0  0  0
 24 52  1  0  0  0  0
 25 53  1  0  0  0  0
 25 54  1  0  0  0  0
M  END
