
 OpenBabel10072620173D

 51 55  0  0  0  0  0  0  0  0999 V2000
   -2.9086   -8.4514    4.4816 C   0  0  0  0  0  0  0  0  0  0  0  0
   -2.1182   -7.7958    5.4050 C   0  0  0  0  0  0  0  0  0  0  0  0
   -1.7936   -6.4780    5.2443 C   0  0  0  0  0  0  0  0  0  0  0  0
   -2.2770   -5.8027    4.1318 C   0  0  0  0  0  0  0  0  0  0  0  0
   -3.0545   -6.4404    3.1694 C   0  0  0  0  0  0  0  0  0  0  0  0
   -3.3639   -7.7854    3.3665 C   0  0  0  0  0  0  0  0  0  0  0  0
   -3.4502   -5.6787    2.0263 C   0  0  0  0  0  0  0  0  0  0  0  0
   -3.1503   -4.3715    1.9033 C   0  0  0  0  0  0  0  0  0  0  0  0
   -2.4587   -3.6816    2.9976 C   0  0  0  0  0  0  0  0  0  0  0  0
   -2.2829   -2.5073    3.1132 O   0  0  0  0  0  0  0  0  0  0  0  0
   -1.9802   -4.4709    4.0194 O   0  0  0  0  0  0  0  0  0  0  0  0
   -3.5259   -3.6161    0.6389 C   0  0  0  0  0  0  0  0  0  0  0  0
   -2.8095   -2.5525    0.1549 C   0  0  0  0  0  0  0  0  0  0  0  0
   -3.5235   -1.9567   -1.3208 S   0  0  0  0  0  0  0  0  0  0  0  0
   -4.7416   -3.1775   -1.1830 C   0  0  0  0  0  0  0  0  0  0  0  0
   -4.6281   -3.9404   -0.1345 N   0  0  0  0  0  0  0  0  0  0  0  0
   -5.8547   -3.3458   -2.2043 C   0  0  0  0  0  0  0  0  0  0  0  0
   -6.7837   -4.3263   -2.0425 C   0  0  0  0  0  0  0  0  0  0  0  0
   -6.7110   -5.2231   -0.8801 N   0  0  0  0  0  0  0  0  0  0  0  0
   -7.7138   -6.2838   -0.7062 C   0  0  0  0  0  0  0  0  0  0  0  0
   -7.3719   -7.4061   -0.0842 C   0  0  0  0  0  0  0  0  0  0  0  0
   -8.3211   -8.3484    0.2304 C   0  0  0  0  0  0  0  0  0  0  0  0
   -9.6204   -8.1979   -0.1677 C   0  0  0  0  0  0  0  0  0  0  0  0
   -9.9361   -7.0389   -0.7163 C   0  0  0  0  0  0  0  0  0  0  0  0
   -8.9967   -6.0943   -1.1931 C   0  0  0  0  0  0  0  0  0  0  0  0
  -10.8421   -9.5163    0.0458 S   0  0  0  0  0  0  0  0  0  0  0  0
  -11.8917   -9.4237   -1.0641 O   0  0  0  0  0  0  0  0  0  0  0  0
  -10.1430  -10.8759   -0.0252 O   0  0  0  0  0  0  0  0  0  0  0  0
  -11.6267   -9.3411    1.6114 N   0  0  0  0  0  0  0  0  0  0  0  0
  -10.8277   -9.3944    2.8441 C   0  0  0  0  0  0  0  0  0  0  0  0
  -10.2977   -8.3374    3.3884 N   0  0  0  0  0  0  0  0  0  0  0  0
   -9.6114   -8.6308    4.5551 C   0  0  0  0  0  0  0  0  0  0  0  0
   -9.6130   -9.9642    4.8723 C   0  0  0  0  0  0  0  0  0  0  0  0
  -10.5172  -10.8720    3.6887 S   0  0  0  0  0  0  0  0  0  0  0  0
   -5.9299   -2.4184   -3.4063 C   0  0  0  0  0  0  0  0  0  0  0  0
   -5.9923   -1.6492   -4.4035 N   0  0  0  0  0  0  0  0  0  0  0  0
   -3.1581   -9.4420    4.6278 H   0  0  0  0  0  0  0  0  0  0  0  0
   -1.7674   -8.3087    6.2289 H   0  0  0  0  0  0  0  0  0  0  0  0
   -1.2005   -5.9943    5.9366 H   0  0  0  0  0  0  0  0  0  0  0  0
   -3.9390   -8.2856    2.6707 H   0  0  0  0  0  0  0  0  0  0  0  0
   -3.9811   -6.1439    1.2735 H   0  0  0  0  0  0  0  0  0  0  0  0
   -1.9661   -2.1594    0.6010 H   0  0  0  0  0  0  0  0  0  0  0  0
   -7.5395   -4.4406   -2.7359 H   0  0  0  0  0  0  0  0  0  0  0  0
   -5.9907   -5.1134   -0.2180 H   0  0  0  0  0  0  0  0  0  0  0  0
   -6.3843   -7.5720    0.1651 H   0  0  0  0  0  0  0  0  0  0  0  0
   -8.0493   -9.1818    0.7751 H   0  0  0  0  0  0  0  0  0  0  0  0
  -10.9377   -6.8059   -0.8034 H   0  0  0  0  0  0  0  0  0  0  0  0
   -9.2447   -5.3333   -1.8444 H   0  0  0  0  0  0  0  0  0  0  0  0
  -12.6008   -9.2074    1.6616 H   0  0  0  0  0  0  0  0  0  0  0  0
   -9.1434   -7.9136    5.1309 H   0  0  0  0  0  0  0  0  0  0  0  0
   -9.1448  -10.3736    5.6958 H   0  0  0  0  0  0  0  0  0  0  0  0
  1  2  2  0  0  0  0
  1  6  1  0  0  0  0
  1 37  1  0  0  0  0
  2  3  1  0  0  0  0
  2 38  1  0  0  0  0
  3  4  2  0  0  0  0
  3 39  1  0  0  0  0
  4  5  1  0  0  0  0
  4 11  1  0  0  0  0
  5  6  2  0  0  0  0
  5  7  1  0  0  0  0
  6 40  1  0  0  0  0
  7  8  2  0  0  0  0
  7 41  1  0  0  0  0
  8  9  1  0  0  0  0
  8 12  1  0  0  0  0
  9 10  2  0  0  0  0
  9 11  1  0  0  0  0
 12 13  2  0  0  0  0
 12 16  1  0  0  0  0
 13 14  1  0  0  0  0
 13 42  1  0  0  0  0
 14 15  1  0  0  0  0
 15 16  2  0  0  0  0
 15 17  1  0  0  0  0
 17 18  2  0  0  0  0
 17 35  1  0  0  0  0
 18 19  1  0  0  0  0
 18 43  1  0  0  0  0
 19 20  1  0  0  0  0
 19 44  1  0  0  0  0
 20 21  2  0  0  0  0
 20 25  1  0  0  0  0
 21 22  1  0  0  0  0
 21 45  1  0  0  0  0
 22 23  2  0  0  0  0
 22 46  1  0  0  0  0
 23 24  1  0  0  0  0
 23 26  1  0  0  0  0
 24 25  2  0  0  0  0
 24 47  1  0  0  0  0
 25 48  1  0  0  0  0
 26 27  2  0  0  0  0
 26 28  2  0  0  0  0
 26 29  1  0  0  0  0
 29 30  1  0  0  0  0
 29 49  1  0  0  0  0
 30 31  2  0  0  0  0
 30 34  1  0  0  0  0
 31 32  1  0  0  0  0
 32 33  2  0  0  0  0
 32 50  1  0  0  0  0
 33 34  1  0  0  0  0
 33 51  1  0  0  0  0
 35 36  3  0  0  0  0
M  END
