
 OpenBabel10072616403D

240248  0  0  1  0  0  0  0  0999 V2000
   -7.5186    0.7807   -0.6568 C   0  0  0  0  0  0  0  0  0  0  0  0
   -6.0225    0.8926   -0.9003 C   0  0  0  0  0  0  0  0  0  0  0  0
   -5.4828    2.6083   -0.5454 S   0  0  0  0  0  0  0  0  0  0  0  0
   -3.6863    2.5244   -0.9215 C   0  0  0  0  0  0  0  0  0  0  0  0
   -3.2934    2.1238   -2.3441 C   0  0  2  0  0  0  0  0  0  0  0  0
   -3.8464    3.0181   -3.4641 C   0  0  2  0  0  0  0  0  0  0  0  0
   -3.4477    2.4575   -4.8379 C   0  0  1  0  0  0  0  0  0  0  0  0
   -3.8599    0.9850   -4.9464 C   0  0  2  0  0  0  0  0  0  0  0  0
   -3.3171    0.1966   -3.7440 C   0  0  2  0  0  0  0  0  0  0  0  0
   -3.7178    0.7660   -2.5145 O   0  0  0  0  0  0  0  0  0  0  0  0
   -1.9105    0.2236   -3.7896 O   0  0  0  0  0  0  0  0  0  0  0  0
   -1.2674   -1.0436   -3.6659 C   0  0  2  0  0  0  0  0  0  0  0  0
   -0.7611   -1.3136   -2.2355 C   0  0  2  0  0  0  0  0  0  0  0  0
    0.1699   -2.4016   -2.1921 O   0  0  0  0  0  0  0  0  0  0  0  0
    1.2624   -2.2984   -3.0811 C   0  0  1  0  0  0  0  0  0  0  0  0
    0.8252   -2.0867   -4.5412 C   0  0  1  0  0  0  0  0  0  0  0  0
   -0.1166   -0.9062   -4.6541 C   0  0  1  0  0  0  0  0  0  0  0  0
   -0.7211   -0.8187   -5.9734 O   0  0  0  0  0  0  0  0  0  0  0  0
    1.9015   -1.8852   -5.4622 O   0  0  0  0  0  0  0  0  0  0  0  0
    2.1070   -1.2618   -2.6101 O   0  0  0  0  0  0  0  0  0  0  0  0
    3.2787   -1.7633   -1.9333 C   0  0  2  0  0  0  0  0  0  0  0  0
    3.3778   -1.2632   -0.4733 C   0  0  2  0  0  0  0  0  0  0  0  0
    4.6867   -1.3894    0.1043 O   0  0  0  0  0  0  0  0  0  0  0  0
    5.7686   -0.9411   -0.7053 C   0  0  1  0  0  0  0  0  0  0  0  0
    5.7504   -1.5743   -2.1095 C   0  0  1  0  0  0  0  0  0  0  0  0
    4.4308   -1.2708   -2.7897 C   0  0  1  0  0  0  0  0  0  0  0  0
    4.3306   -1.9430   -4.0663 O   0  0  0  0  0  0  0  0  0  0  0  0
    6.7999   -1.1121   -2.9661 O   0  0  0  0  0  0  0  0  0  0  0  0
    5.7660    0.4893   -0.7944 O   0  0  0  0  0  0  0  0  0  0  0  0
    6.4511    1.1136    0.3128 C   0  0  2  0  0  0  0  0  0  0  0  0
    5.9116    2.5383    0.5170 C   0  0  2  0  0  0  0  0  0  0  0  0
    6.6188    3.1813    1.5955 O   0  0  0  0  0  0  0  0  0  0  0  0
    7.9775    3.4425    1.2648 C   0  0  1  0  0  0  0  0  0  0  0  0
    8.6990    2.1036    1.0337 C   0  0  1  0  0  0  0  0  0  0  0  0
    7.9642    1.2391   -0.0081 C   0  0  1  0  0  0  0  0  0  0  0  0
    8.5613   -0.0638   -0.0948 O   0  0  0  0  0  0  0  0  0  0  0  0
   10.0640    2.3073    0.6509 O   0  0  0  0  0  0  0  0  0  0  0  0
    8.0107    4.2621    0.1097 O   0  0  0  0  0  0  0  0  0  0  0  0
    8.3922    5.6389    0.2761 C   0  0  2  0  0  0  0  0  0  0  0  0
    7.3816    6.5484    1.0332 C   0  0  2  0  0  0  0  0  0  0  0  0
    7.7348    7.9439    0.9264 O   0  0  0  0  0  0  0  0  0  0  0  0
    7.7912    8.4370   -0.4009 C   0  0  1  0  0  0  0  0  0  0  0  0
    8.8488    7.6633   -1.2038 C   0  0  1  0  0  0  0  0  0  0  0  0
    8.5573    6.1600   -1.1746 C   0  0  1  0  0  0  0  0  0  0  0  0
    9.6183    5.4058   -1.8072 O   0  0  0  0  0  0  0  0  0  0  0  0
    8.9680    8.1351   -2.5494 O   0  0  0  0  0  0  0  0  0  0  0  0
    6.4985    8.3516   -1.0001 O   0  0  0  0  0  0  0  0  0  0  0  0
    5.8510    9.6212   -1.1560 C   0  0  2  0  0  0  0  0  0  0  0  0
    4.5620    9.7111   -0.3279 C   0  0  2  0  0  0  0  0  0  0  0  0
    3.8461   10.9204   -0.6012 O   0  0  0  0  0  0  0  0  0  0  0  0
    3.5299   11.1247   -1.9640 C   0  0  1  0  0  0  0  0  0  0  0  0
    4.7824   11.1071   -2.8514 C   0  0  1  0  0  0  0  0  0  0  0  0
    5.5507    9.7996   -2.6489 C   0  0  1  0  0  0  0  0  0  0  0  0
    6.8259    9.8143   -3.3384 O   0  0  0  0  0  0  0  0  0  0  0  0
    4.4945   11.2863   -4.2404 O   0  0  0  0  0  0  0  0  0  0  0  0
    2.6287   10.1145   -2.3627 O   0  0  0  0  0  0  0  0  0  0  0  0
    1.2745   10.5604   -2.4935 C   0  0  2  0  0  0  0  0  0  0  0  0
    0.3468    9.9209   -1.4444 C   0  0  2  0  0  0  0  0  0  0  0  0
   -1.0386   10.1398   -1.7460 O   0  0  0  0  0  0  0  0  0  0  0  0
   -1.4401    9.7802   -3.0562 C   0  0  1  0  0  0  0  0  0  0  0  0
   -0.5706   10.4168   -4.1512 C   0  0  1  0  0  0  0  0  0  0  0  0
    0.8969   10.1308   -3.9027 C   0  0  1  0  0  0  0  0  0  0  0  0
    1.7463   10.8877   -4.8038 O   0  0  0  0  0  0  0  0  0  0  0  0
   -0.8957    9.9767   -5.4734 O   0  0  0  0  0  0  0  0  0  0  0  0
   -1.4552    8.3633   -3.1790 O   0  0  0  0  0  0  0  0  0  0  0  0
   -2.7583    7.8019   -2.9143 C   0  0  2  0  0  0  0  0  0  0  0  0
   -2.7011    6.7673   -1.7696 C   0  0  2  0  0  0  0  0  0  0  0  0
   -3.8205    5.8764   -1.7195 O   0  0  0  0  0  0  0  0  0  0  0  0
   -4.2470    5.3171   -2.9510 C   0  0  2  0  0  0  0  0  0  0  0  0
   -3.3052    4.3467   -3.3910 O   0  0  0  0  0  0  0  0  0  0  0  0
   -4.4882    6.3916   -4.0242 C   0  0  1  0  0  0  0  0  0  0  0  0
   -3.2129    7.1957   -4.2360 C   0  0  1  0  0  0  0  0  0  0  0  0
   -3.3983    8.2871   -5.1646 O   0  0  0  0  0  0  0  0  0  0  0  0
   -4.9339    5.8506   -5.2680 O   0  0  0  0  0  0  0  0  0  0  0  0
   -2.6482    7.4337   -0.3734 C   0  0  0  0  0  0  0  0  0  0  0  0
   -4.0489    8.5679    0.0461 S   0  0  0  0  0  0  0  0  0  0  0  0
   -5.4865    7.4284   -0.0179 C   0  0  0  0  0  0  0  0  0  0  0  0
   -6.7463    8.2207    0.2913 C   0  0  0  0  0  0  0  0  0  0  0  0
   -7.9621    7.3365    0.2145 C   0  0  0  0  0  0  0  0  0  0  0  0
   -7.9629    6.1356   -0.0326 O   0  0  0  0  0  0  0  0  0  0  0  0
   -9.1022    8.0329    0.4213 O   0  0  0  0  0  0  0  0  0  0  0  0
    0.5584   10.4432   -0.0135 C   0  0  0  0  0  0  0  0  0  0  0  0
    0.3940   12.2614    0.2177 S   0  0  0  0  0  0  0  0  0  0  0  0
   -1.3371   12.5461   -0.2872 C   0  0  0  0  0  0  0  0  0  0  0  0
   -1.6293   14.0347   -0.2078 C   0  0  0  0  0  0  0  0  0  0  0  0
   -3.0464   14.3063   -0.6287 C   0  0  0  0  0  0  0  0  0  0  0  0
   -3.8525   13.4691   -1.0079 O   0  0  0  0  0  0  0  0  0  0  0  0
   -3.3166   15.6369   -0.5995 O   0  0  0  0  0  0  0  0  0  0  0  0
    4.7858    9.6992    1.1863 C   0  0  0  0  0  0  0  0  0  0  0  0
    5.8807   11.0196    1.8608 S   0  0  0  0  0  0  0  0  0  0  0  0
    5.0002   12.5333    1.3354 C   0  0  0  0  0  0  0  0  0  0  0  0
    5.7944   13.7549    1.7705 C   0  0  0  0  0  0  0  0  0  0  0  0
    5.0891   15.0028    1.3073 C   0  0  0  0  0  0  0  0  0  0  0  0
    4.0233   15.0382    0.7131 O   0  0  0  0  0  0  0  0  0  0  0  0
    5.8096   16.1159    1.5727 O   0  0  0  0  0  0  0  0  0  0  0  0
    7.2162    6.3056    2.5447 C   0  0  0  0  0  0  0  0  0  0  0  0
    8.7897    6.5337    3.4524 S   0  0  0  0  0  0  0  0  0  0  0  0
    8.1945    6.2249    5.1414 C   0  0  0  0  0  0  0  0  0  0  0  0
    9.3783    6.4201    6.0752 C   0  0  0  0  0  0  0  0  0  0  0  0
    9.0005    6.1592    7.5048 C   0  0  0  0  0  0  0  0  0  0  0  0
    7.8841    5.8498    7.8993 O   0  0  0  0  0  0  0  0  0  0  0  0
   10.0544    6.2967    8.3406 O   0  0  0  0  0  0  0  0  0  0  0  0
    4.4201    2.5911    0.8453 C   0  0  0  0  0  0  0  0  0  0  0  0
    3.8399    4.3478    1.0304 S   0  0  0  0  0  0  0  0  0  0  0  0
    4.1896    5.0435   -0.6375 C   0  0  0  0  0  0  0  0  0  0  0  0
    3.3823    4.2810   -1.6685 C   0  0  0  0  0  0  0  0  0  0  0  0
    3.6059    4.7602   -3.0655 C   0  0  0  0  0  0  0  0  0  0  0  0
    3.9597    5.8756   -3.4461 O   0  0  0  0  0  0  0  0  0  0  0  0
    3.3587    3.7642   -3.9387 O   0  0  0  0  0  0  0  0  0  0  0  0
    2.4084   -2.0014    0.4859 C   0  0  0  0  0  0  0  0  0  0  0  0
    2.5257   -3.8445    0.5556 S   0  0  0  0  0  0  0  0  0  0  0  0
    4.2055   -4.0647    1.2445 C   0  0  0  0  0  0  0  0  0  0  0  0
    4.5033   -5.5485    1.4231 C   0  0  0  0  0  0  0  0  0  0  0  0
    5.9080   -5.7192    1.9508 C   0  0  0  0  0  0  0  0  0  0  0  0
    6.6900   -4.8129    2.1805 O   0  0  0  0  0  0  0  0  0  0  0  0
    6.2298   -7.0210    2.1341 O   0  0  0  0  0  0  0  0  0  0  0  0
   -1.8531   -1.6855   -1.2209 C   0  0  0  0  0  0  0  0  0  0  0  0
   -2.8728   -3.1559   -1.6475 S   0  0  0  0  0  0  0  0  0  0  0  0
   -1.5941   -4.4602   -1.7391 C   0  0  0  0  0  0  0  0  0  0  0  0
   -2.2401   -5.7824   -2.1190 C   0  0  0  0  0  0  0  0  0  0  0  0
   -1.1788   -6.8490   -2.2081 C   0  0  0  0  0  0  0  0  0  0  0  0
    0.0077   -6.6899   -1.9719 O   0  0  0  0  0  0  0  0  0  0  0  0
   -1.6749   -8.0243   -2.6501 O   0  0  0  0  0  0  0  0  0  0  0  0
   -3.3961    0.4503   -6.1921 O   0  0  0  0  0  0  0  0  0  0  0  0
   -4.0851    3.2801   -5.8440 O   0  0  0  0  0  0  0  0  0  0  0  0
   -7.9808   -0.6127   -0.9740 C   0  0  0  0  0  0  0  0  0  0  0  0
   -7.2649   -1.5237   -1.3369 O   0  0  0  0  0  0  0  0  0  0  0  0
   -9.3191   -0.7412   -0.8405 O   0  0  0  0  0  0  0  0  0  0  0  0
   -8.0377    1.4360   -1.3503 H   0  0  0  0  0  0  0  0  0  0  0  0
   -7.8192    1.0381    0.3622 H   0  0  0  0  0  0  0  0  0  0  0  0
   -5.8559    0.6566   -1.9568 H   0  0  0  0  0  0  0  0  0  0  0  0
   -5.4836    0.1767   -0.2729 H   0  0  0  0  0  0  0  0  0  0  0  0
   -3.2449    1.8030   -0.2233 H   0  0  0  0  0  0  0  0  0  0  0  0
   -3.2493    3.5044   -0.7089 H   0  0  0  0  0  0  0  0  0  0  0  0
   -2.1907    2.1891   -2.3666 H   0  0  0  0  0  0  0  0  0  0  0  0
   -4.9430    3.0197   -3.4493 H   0  0  0  0  0  0  0  0  0  0  0  0
   -2.3690    2.5730   -5.0115 H   0  0  0  0  0  0  0  0  0  0  0  0
   -4.9529    0.9141   -4.9640 H   0  0  0  0  0  0  0  0  0  0  0  0
   -3.6899   -0.8285   -3.8078 H   0  0  0  0  0  0  0  0  0  0  0  0
   -1.9023   -1.8578   -4.0327 H   0  0  0  0  0  0  0  0  0  0  0  0
   -0.2940   -0.3908   -1.8493 H   0  0  0  0  0  0  0  0  0  0  0  0
    1.7917   -3.2514   -3.0720 H   0  0  0  0  0  0  0  0  0  0  0  0
    0.2989   -2.9849   -4.8802 H   0  0  0  0  0  0  0  0  0  0  0  0
    0.4203    0.0425   -4.5102 H   0  0  0  0  0  0  0  0  0  0  0  0
   -0.2250   -1.4157   -6.5659 H   0  0  0  0  0  0  0  0  0  0  0  0
    2.7123   -1.6754   -4.9447 H   0  0  0  0  0  0  0  0  0  0  0  0
    3.3234   -2.8571   -1.9517 H   0  0  0  0  0  0  0  0  0  0  0  0
    3.0929   -0.2010   -0.4524 H   0  0  0  0  0  0  0  0  0  0  0  0
    6.6707   -1.2942   -0.2101 H   0  0  0  0  0  0  0  0  0  0  0  0
    5.8625   -2.6612   -2.0251 H   0  0  0  0  0  0  0  0  0  0  0  0
    4.3232   -0.2006   -3.0026 H   0  0  0  0  0  0  0  0  0  0  0  0
    5.2417   -2.1745   -4.3371 H   0  0  0  0  0  0  0  0  0  0  0  0
    7.0076   -0.1993   -2.6876 H   0  0  0  0  0  0  0  0  0  0  0  0
    6.3011    0.5326    1.2344 H   0  0  0  0  0  0  0  0  0  0  0  0
    6.0764    3.0748   -0.4211 H   0  0  0  0  0  0  0  0  0  0  0  0
    8.4704    3.9362    2.1056 H   0  0  0  0  0  0  0  0  0  0  0  0
    8.7148    1.5539    1.9837 H   0  0  0  0  0  0  0  0  0  0  0  0
    8.0905    1.6757   -1.0072 H   0  0  0  0  0  0  0  0  0  0  0  0
    9.0517   -0.2329    0.7309 H   0  0  0  0  0  0  0  0  0  0  0  0
   10.0460    2.8467   -0.1657 H   0  0  0  0  0  0  0  0  0  0  0  0
    9.3863    5.6629    0.7392 H   0  0  0  0  0  0  0  0  0  0  0  0
    6.3891    6.4124    0.5922 H   0  0  0  0  0  0  0  0  0  0  0  0
    8.1328    9.4761   -0.3433 H   0  0  0  0  0  0  0  0  0  0  0  0
    9.8294    7.8256   -0.7382 H   0  0  0  0  0  0  0  0  0  0  0  0
    7.6576    5.9396   -1.7642 H   0  0  0  0  0  0  0  0  0  0  0  0
   10.4282    5.9457   -1.7791 H   0  0  0  0  0  0  0  0  0  0  0  0
    8.0725    8.3991   -2.8642 H   0  0  0  0  0  0  0  0  0  0  0  0
    6.5129   10.4516   -0.8922 H   0  0  0  0  0  0  0  0  0  0  0  0
    3.9381    8.8291   -0.5463 H   0  0  0  0  0  0  0  0  0  0  0  0
    3.0712   12.1096   -2.0728 H   0  0  0  0  0  0  0  0  0  0  0  0
    5.4251   11.9489   -2.5698 H   0  0  0  0  0  0  0  0  0  0  0  0
    4.9929    8.9462   -3.0587 H   0  0  0  0  0  0  0  0  0  0  0  0
    6.8819   10.6474   -3.8470 H   0  0  0  0  0  0  0  0  0  0  0  0
    3.6085   10.8936   -4.4256 H   0  0  0  0  0  0  0  0  0  0  0  0
    1.1858   11.6524   -2.4725 H   0  0  0  0  0  0  0  0  0  0  0  0
    0.5635    8.8400   -1.4025 H   0  0  0  0  0  0  0  0  0  0  0  0
   -2.4450   10.1750   -3.2126 H   0  0  0  0  0  0  0  0  0  0  0  0
   -0.7232   11.5012   -4.1360 H   0  0  0  0  0  0  0  0  0  0  0  0
    1.1409    9.0734   -4.0744 H   0  0  0  0  0  0  0  0  0  0  0  0
    1.1848   11.2277   -5.5271 H   0  0  0  0  0  0  0  0  0  0  0  0
   -1.3804    9.1270   -5.3885 H   0  0  0  0  0  0  0  0  0  0  0  0
   -3.4789    8.5876   -2.6687 H   0  0  0  0  0  0  0  0  0  0  0  0
   -1.7795    6.1764   -1.8833 H   0  0  0  0  0  0  0  0  0  0  0  0
   -5.2130    4.8537   -2.7421 H   0  0  0  0  0  0  0  0  0  0  0  0
   -5.2790    7.0670   -3.6762 H   0  0  0  0  0  0  0  0  0  0  0  0
   -2.4159    6.5776   -4.6653 H   0  0  0  0  0  0  0  0  0  0  0  0
   -4.3544    8.4671   -5.2378 H   0  0  0  0  0  0  0  0  0  0  0  0
   -4.3244    5.1147   -5.5080 H   0  0  0  0  0  0  0  0  0  0  0  0
   -2.6149    6.6695    0.4125 H   0  0  0  0  0  0  0  0  0  0  0  0
   -1.7315    8.0243   -0.2806 H   0  0  0  0  0  0  0  0  0  0  0  0
   -5.3479    6.6016    0.6882 H   0  0  0  0  0  0  0  0  0  0  0  0
   -5.6118    7.0268   -1.0275 H   0  0  0  0  0  0  0  0  0  0  0  0
   -6.8658    8.9983   -0.4740 H   0  0  0  0  0  0  0  0  0  0  0  0
   -6.7152    8.6780    1.2888 H   0  0  0  0  0  0  0  0  0  0  0  0
   -8.9374    8.9839    0.5825 H   0  0  0  0  0  0  0  0  0  0  0  0
   -0.1527    9.9597    0.6682 H   0  0  0  0  0  0  0  0  0  0  0  0
    1.5662   10.1769    0.3196 H   0  0  0  0  0  0  0  0  0  0  0  0
   -2.0052   11.9677    0.3566 H   0  0  0  0  0  0  0  0  0  0  0  0
   -1.4682   12.2449   -1.3321 H   0  0  0  0  0  0  0  0  0  0  0  0
   -0.9741   14.5460   -0.9217 H   0  0  0  0  0  0  0  0  0  0  0  0
   -1.4708   14.4560    0.7962 H   0  0  0  0  0  0  0  0  0  0  0  0
   -2.5340   16.1445   -0.3451 H   0  0  0  0  0  0  0  0  0  0  0  0
    3.8179    9.8072    1.6846 H   0  0  0  0  0  0  0  0  0  0  0  0
    5.2089    8.7293    1.4671 H   0  0  0  0  0  0  0  0  0  0  0  0
    3.9920   12.5474    1.7574 H   0  0  0  0  0  0  0  0  0  0  0  0
    4.9443   12.5442    0.2376 H   0  0  0  0  0  0  0  0  0  0  0  0
    6.7606   13.7175    1.2566 H   0  0  0  0  0  0  0  0  0  0  0  0
    5.9566   13.8235    2.8593 H   0  0  0  0  0  0  0  0  0  0  0  0
    6.6498   15.8977    2.0164 H   0  0  0  0  0  0  0  0  0  0  0  0
    6.5057    7.0415    2.9379 H   0  0  0  0  0  0  0  0  0  0  0  0
    6.8097    5.3197    2.7673 H   0  0  0  0  0  0  0  0  0  0  0  0
    7.8052    5.2032    5.2045 H   0  0  0  0  0  0  0  0  0  0  0  0
    7.3857    6.9223    5.3845 H   0  0  0  0  0  0  0  0  0  0  0  0
    9.7405    7.4531    6.0180 H   0  0  0  0  0  0  0  0  0  0  0  0
   10.1914    5.7329    5.8077 H   0  0  0  0  0  0  0  0  0  0  0  0
   10.8846    6.5420    7.8855 H   0  0  0  0  0  0  0  0  0  0  0  0
    3.7983    2.0857    0.0977 H   0  0  0  0  0  0  0  0  0  0  0  0
    4.2331    2.1195    1.8186 H   0  0  0  0  0  0  0  0  0  0  0  0
    5.2662    5.0063   -0.8432 H   0  0  0  0  0  0  0  0  0  0  0  0
    3.9168    6.1081   -0.6158 H   0  0  0  0  0  0  0  0  0  0  0  0
    2.3075    4.3757   -1.4744 H   0  0  0  0  0  0  0  0  0  0  0  0
    3.6748    3.2196   -1.6499 H   0  0  0  0  0  0  0  0  0  0  0  0
    3.4762    4.1281   -4.8400 H   0  0  0  0  0  0  0  0  0  0  0  0
    2.5278   -1.6366    1.5144 H   0  0  0  0  0  0  0  0  0  0  0  0
    1.3818   -1.7724    0.1893 H   0  0  0  0  0  0  0  0  0  0  0  0
    4.2933   -3.5333    2.1998 H   0  0  0  0  0  0  0  0  0  0  0  0
    4.9459   -3.6649    0.5454 H   0  0  0  0  0  0  0  0  0  0  0  0
    4.4540   -6.0507    0.4490 H   0  0  0  0  0  0  0  0  0  0  0  0
    3.8056   -6.0217    2.1268 H   0  0  0  0  0  0  0  0  0  0  0  0
    5.5148   -7.6350    1.8737 H   0  0  0  0  0  0  0  0  0  0  0  0
   -1.3906   -1.8799   -0.2476 H   0  0  0  0  0  0  0  0  0  0  0  0
   -2.5344   -0.8430   -1.0879 H   0  0  0  0  0  0  0  0  0  0  0  0
   -1.0727   -4.5406   -0.7802 H   0  0  0  0  0  0  0  0  0  0  0  0
   -0.8771   -4.2062   -2.5299 H   0  0  0  0  0  0  0  0  0  0  0  0
   -2.6696   -5.6744   -3.1205 H   0  0  0  0  0  0  0  0  0  0  0  0
   -3.0164   -6.1125   -1.4114 H   0  0  0  0  0  0  0  0  0  0  0  0
   -2.6377   -7.9641   -2.8183 H   0  0  0  0  0  0  0  0  0  0  0  0
   -2.4331    0.2608   -6.0961 H   0  0  0  0  0  0  0  0  0  0  0  0
   -4.7885    2.7523   -6.2698 H   0  0  0  0  0  0  0  0  0  0  0  0
   -9.7000    0.1091   -0.5546 H   0  0  0  0  0  0  0  0  0  0  0  0
  1  2  1  0  0  0  0
  1126  1  0  0  0  0
  1129  1  0  0  0  0
  1130  1  0  0  0  0
  2  3  1  0  0  0  0
  2131  1  0  0  0  0
  2132  1  0  0  0  0
  3  4  1  0  0  0  0
  4133  1  0  0  0  0
  4134  1  0  0  0  0
  5  6  1  0  0  0  0
  5 10  1  0  0  0  0
  5  4  1  0  0  0  0
  5135  1  6  0  0  0
  6  7  1  0  0  0  0
  6 70  1  0  0  0  0
  6136  1  1  0  0  0
  7  8  1  0  0  0  0
  7125  1  0  0  0  0
  7137  1  6  0  0  0
  8  9  1  0  0  0  0
  8124  1  0  0  0  0
  8138  1  1  0  0  0
  9 10  1  0  0  0  0
  9 11  1  0  0  0  0
  9139  1  6  0  0  0
 11 12  1  0  0  0  0
 12 13  1  0  0  0  0
 12 17  1  0  0  0  0
 12140  1  6  0  0  0
 13 14  1  0  0  0  0
 13117  1  0  0  0  0
 13141  1  1  0  0  0
 14 15  1  0  0  0  0
 15 16  1  0  0  0  0
 15 20  1  0  0  0  0
 15142  1  1  0  0  0
 16 17  1  0  0  0  0
 16 19  1  0  0  0  0
 16143  1  6  0  0  0
 17 18  1  0  0  0  0
 17144  1  1  0  0  0
 18145  1  0  0  0  0
 19146  1  0  0  0  0
 20 21  1  0  0  0  0
 21 22  1  0  0  0  0
 21 26  1  0  0  0  0
 21147  1  6  0  0  0
 22 23  1  0  0  0  0
 22110  1  0  0  0  0
 22148  1  1  0  0  0
 23 24  1  0  0  0  0
 24 25  1  0  0  0  0
 24 29  1  0  0  0  0
 24149  1  1  0  0  0
 25 26  1  0  0  0  0
 25 28  1  0  0  0  0
 25150  1  1  0  0  0
 26 27  1  0  0  0  0
 26151  1  6  0  0  0
 27152  1  0  0  0  0
 28153  1  0  0  0  0
 29 30  1  0  0  0  0
 30 31  1  0  0  0  0
 30 35  1  0  0  0  0
 30154  1  1  0  0  0
 31 32  1  0  0  0  0
 31103  1  0  0  0  0
 31155  1  6  0  0  0
 32 33  1  0  0  0  0
 33 34  1  0  0  0  0
 33 38  1  0  0  0  0
 33156  1  1  0  0  0
 34 35  1  0  0  0  0
 34 37  1  0  0  0  0
 34157  1  1  0  0  0
 35 36  1  0  0  0  0
 35158  1  6  0  0  0
 36159  1  0  0  0  0
 37160  1  0  0  0  0
 38 39  1  0  0  0  0
 39 40  1  0  0  0  0
 39 44  1  0  0  0  0
 39161  1  1  0  0  0
 40 41  1  0  0  0  0
 40 96  1  0  0  0  0
 40162  1  6  0  0  0
 41 42  1  0  0  0  0
 42 43  1  0  0  0  0
 42 47  1  0  0  0  0
 42163  1  1  0  0  0
 43 44  1  0  0  0  0
 43 46  1  0  0  0  0
 43164  1  1  0  0  0
 44 45  1  0  0  0  0
 44165  1  6  0  0  0
 45166  1  0  0  0  0
 46167  1  0  0  0  0
 47 48  1  0  0  0  0
 48 49  1  0  0  0  0
 48 53  1  0  0  0  0
 48168  1  1  0  0  0
 49 50  1  0  0  0  0
 49 89  1  0  0  0  0
 49169  1  6  0  0  0
 50 51  1  0  0  0  0
 51 52  1  0  0  0  0
 51 56  1  0  0  0  0
 51170  1  6  0  0  0
 52 53  1  0  0  0  0
 52 55  1  0  0  0  0
 52171  1  1  0  0  0
 53 54  1  0  0  0  0
 53172  1  6  0  0  0
 54173  1  0  0  0  0
 55174  1  0  0  0  0
 56 57  1  0  0  0  0
 57 58  1  0  0  0  0
 57 62  1  0  0  0  0
 57175  1  1  0  0  0
 58 59  1  0  0  0  0
 58 82  1  0  0  0  0
 58176  1  1  0  0  0
 59 60  1  0  0  0  0
 60 61  1  0  0  0  0
 60 65  1  0  0  0  0
 60177  1  6  0  0  0
 61 62  1  0  0  0  0
 61 64  1  0  0  0  0
 61178  1  1  0  0  0
 62 63  1  0  0  0  0
 62179  1  6  0  0  0
 63180  1  0  0  0  0
 64181  1  0  0  0  0
 65 66  1  0  0  0  0
 66 67  1  0  0  0  0
 66 72  1  0  0  0  0
 66182  1  1  0  0  0
 67 68  1  0  0  0  0
 67 75  1  0  0  0  0
 67183  1  6  0  0  0
 68 69  1  0  0  0  0
 69 70  1  0  0  0  0
 69 71  1  0  0  0  0
 69184  1  1  0  0  0
 71 72  1  0  0  0  0
 71 74  1  0  0  0  0
 71185  1  1  0  0  0
 72 73  1  0  0  0  0
 72186  1  6  0  0  0
 73187  1  0  0  0  0
 74188  1  0  0  0  0
 75 76  1  0  0  0  0
 75189  1  0  0  0  0
 75190  1  0  0  0  0
 76 77  1  0  0  0  0
 77 78  1  0  0  0  0
 77191  1  0  0  0  0
 77192  1  0  0  0  0
 78 79  1  0  0  0  0
 78193  1  0  0  0  0
 78194  1  0  0  0  0
 79 80  2  0  0  0  0
 79 81  1  0  0  0  0
 81195  1  0  0  0  0
 82 83  1  0  0  0  0
 82196  1  0  0  0  0
 82197  1  0  0  0  0
 83 84  1  0  0  0  0
 84 85  1  0  0  0  0
 84198  1  0  0  0  0
 84199  1  0  0  0  0
 85 86  1  0  0  0  0
 85200  1  0  0  0  0
 85201  1  0  0  0  0
 86 87  2  0  0  0  0
 86 88  1  0  0  0  0
 88202  1  0  0  0  0
 89 90  1  0  0  0  0
 89203  1  0  0  0  0
 89204  1  0  0  0  0
 90 91  1  0  0  0  0
 91 92  1  0  0  0  0
 91205  1  0  0  0  0
 91206  1  0  0  0  0
 92 93  1  0  0  0  0
 92207  1  0  0  0  0
 92208  1  0  0  0  0
 93 94  2  0  0  0  0
 93 95  1  0  0  0  0
 95209  1  0  0  0  0
 96 97  1  0  0  0  0
 96210  1  0  0  0  0
 96211  1  0  0  0  0
 97 98  1  0  0  0  0
 98 99  1  0  0  0  0
 98212  1  0  0  0  0
 98213  1  0  0  0  0
 99100  1  0  0  0  0
 99214  1  0  0  0  0
 99215  1  0  0  0  0
100101  2  0  0  0  0
100102  1  0  0  0  0
102216  1  0  0  0  0
103104  1  0  0  0  0
103217  1  0  0  0  0
103218  1  0  0  0  0
104105  1  0  0  0  0
105106  1  0  0  0  0
105219  1  0  0  0  0
105220  1  0  0  0  0
106107  1  0  0  0  0
106221  1  0  0  0  0
106222  1  0  0  0  0
107108  2  0  0  0  0
107109  1  0  0  0  0
109223  1  0  0  0  0
110111  1  0  0  0  0
110224  1  0  0  0  0
110225  1  0  0  0  0
111112  1  0  0  0  0
112113  1  0  0  0  0
112226  1  0  0  0  0
112227  1  0  0  0  0
113114  1  0  0  0  0
113228  1  0  0  0  0
113229  1  0  0  0  0
114115  2  0  0  0  0
114116  1  0  0  0  0
116230  1  0  0  0  0
117118  1  0  0  0  0
117231  1  0  0  0  0
117232  1  0  0  0  0
118119  1  0  0  0  0
119120  1  0  0  0  0
119233  1  0  0  0  0
119234  1  0  0  0  0
120121  1  0  0  0  0
120235  1  0  0  0  0
120236  1  0  0  0  0
121122  2  0  0  0  0
121123  1  0  0  0  0
123237  1  0  0  0  0
124238  1  0  0  0  0
125239  1  0  0  0  0
126127  2  0  0  0  0
126128  1  0  0  0  0
128240  1  0  0  0  0
M  END
