
 OpenBabel10072620023D

 46 49  0  0  1  0  0  0  0  0999 V2000
   -2.0059   -0.7060   -0.2972 C   0  0  0  0  0  0  0  0  0  0  0  0
   -0.8510   -1.6508    0.0096 C   0  0  0  0  0  0  0  0  0  0  0  0
    0.4342   -1.2255    0.1136 C   0  0  0  0  0  0  0  0  0  0  0  0
    0.7372    0.0991    0.0570 N   0  0  0  0  0  0  0  0  0  0  0  0
   -0.2129    1.1840    0.1434 C   0  0  3  0  0  0  0  0  0  0  0  0
   -1.5059    0.8452   -1.0878 S   0  0  0  0  0  0  0  0  0  0  0  0
    0.9325    2.1336   -0.3312 C   0  0  3  0  0  0  0  0  0  0  0  0
    1.7959    0.8239   -0.3656 C   0  0  0  0  0  0  0  0  0  0  0  0
    2.9122    0.5118   -0.7071 O   0  0  0  0  0  0  0  0  0  0  0  0
    1.4585    3.1625    0.6117 N   0  0  0  0  0  0  0  0  0  0  0  0
    0.6754    3.8768    1.4965 C   0  0  0  0  0  0  0  0  0  0  0  0
   -0.4952    3.5886    1.7281 O   0  0  0  0  0  0  0  0  0  0  0  0
    1.3939    5.0326    2.1803 C   0  0  0  0  0  0  0  0  0  0  0  0
    1.6826    6.1038    1.1726 C   0  0  0  0  0  0  0  0  0  0  0  0
    0.8977    7.1866    0.8298 C   0  0  0  0  0  0  0  0  0  0  0  0
    1.4799    7.9665   -0.2094 C   0  0  0  0  0  0  0  0  0  0  0  0
    2.6916    7.4592   -0.6204 C   0  0  0  0  0  0  0  0  0  0  0  0
    3.1408    6.0726    0.2693 S   0  0  0  0  0  0  0  0  0  0  0  0
    1.5649   -2.1897    0.2667 C   0  0  0  0  0  0  0  0  0  0  0  0
    1.5782   -3.3295   -0.1603 O   0  0  0  0  0  0  0  0  0  0  0  0
    2.5252   -1.7064    1.0687 O   0  0  0  0  0  0  0  0  0  0  0  0
   -1.2815   -3.1060    0.0840 C   0  0  0  0  0  0  0  0  0  0  0  0
   -1.1989   -3.6477    1.4680 N   0  3  0  0  0  0  0  0  0  0  0  0
   -2.0042   -3.1441    2.4350 C   0  0  0  0  0  0  0  0  0  0  0  0
   -1.9611   -3.6382    3.7327 C   0  0  0  0  0  0  0  0  0  0  0  0
   -1.0893   -4.6727    4.0380 C   0  0  0  0  0  0  0  0  0  0  0  0
   -0.2912   -5.2051    3.0344 C   0  0  0  0  0  0  0  0  0  0  0  0
   -0.3673   -4.6821    1.7463 C   0  0  0  0  0  0  0  0  0  0  0  0
   -2.5559   -0.4743    0.6207 H   0  0  0  0  0  0  0  0  0  0  0  0
   -2.7043   -1.1814   -0.9936 H   0  0  0  0  0  0  0  0  0  0  0  0
   -0.5766    1.3116    1.1664 H   0  0  0  0  0  0  0  0  0  0  0  0
    0.7977    2.5750   -1.3259 H   0  0  0  0  0  0  0  0  0  0  0  0
    2.3848    3.5416    0.4224 H   0  0  0  0  0  0  0  0  0  0  0  0
    2.3059    4.6583    2.6595 H   0  0  0  0  0  0  0  0  0  0  0  0
    0.7484    5.4216    2.9760 H   0  0  0  0  0  0  0  0  0  0  0  0
   -0.0601    7.4008    1.2904 H   0  0  0  0  0  0  0  0  0  0  0  0
    1.0305    8.8544   -0.6370 H   0  0  0  0  0  0  0  0  0  0  0  0
    3.3394    7.8434   -1.3967 H   0  0  0  0  0  0  0  0  0  0  0  0
    3.2901   -2.3159    1.0067 H   0  0  0  0  0  0  0  0  0  0  0  0
   -0.7217   -3.7447   -0.6038 H   0  0  0  0  0  0  0  0  0  0  0  0
   -2.3343   -3.2286   -0.2025 H   0  0  0  0  0  0  0  0  0  0  0  0
   -2.6846   -2.3433    2.1640 H   0  0  0  0  0  0  0  0  0  0  0  0
   -2.6077   -3.2212    4.5027 H   0  0  0  0  0  0  0  0  0  0  0  0
   -1.0402   -5.0696    5.0516 H   0  0  0  0  0  0  0  0  0  0  0  0
    0.3872   -6.0273    3.2550 H   0  0  0  0  0  0  0  0  0  0  0  0
    0.2362   -5.0867    0.9380 H   0  0  0  0  0  0  0  0  0  0  0  0
  1  2  1  0  0  0  0
  1  6  1  0  0  0  0
  1 29  1  0  0  0  0
  1 30  1  0  0  0  0
  2  3  2  0  0  0  0
  2 22  1  0  0  0  0
  3  4  1  0  0  0  0
  3 19  1  0  0  0  0
  4  5  1  0  0  0  0
  4  8  1  0  0  0  0
  5  6  1  0  0  0  0
  5  7  1  0  0  0  0
  5 31  1  0  0  0  0
  7  8  1  0  0  0  0
  7 10  1  0  0  0  0
  7 32  1  0  0  0  0
  8  9  2  0  0  0  0
 10 11  1  0  0  0  0
 10 33  1  0  0  0  0
 11 12  2  0  0  0  0
 11 13  1  0  0  0  0
 13 14  1  0  0  0  0
 13 34  1  0  0  0  0
 13 35  1  0  0  0  0
 14 15  2  0  0  0  0
 14 18  1  0  0  0  0
 15 16  1  0  0  0  0
 15 36  1  0  0  0  0
 16 17  2  0  0  0  0
 16 37  1  0  0  0  0
 17 18  1  0  0  0  0
 17 38  1  0  0  0  0
 19 20  2  0  0  0  0
 19 21  1  0  0  0  0
 21 39  1  0  0  0  0
 22 23  1  0  0  0  0
 22 40  1  0  0  0  0
 22 41  1  0  0  0  0
 23 24  2  0  0  0  0
 23 28  1  0  0  0  0
 24 25  1  0  0  0  0
 24 42  1  0  0  0  0
 25 26  2  0  0  0  0
 25 43  1  0  0  0  0
 26 27  1  0  0  0  0
 26 44  1  0  0  0  0
 27 28  2  0  0  0  0
 27 45  1  0  0  0  0
 28 46  1  0  0  0  0
M  CHG  1  23   1
M  END
