
 OpenBabel10072619243D

294308  0  0  1  0  0  0  0  0999 V2000
    5.6057   -1.2515    4.6699 C   0  0  0  0  0  0  0  0  0  0  0  0
    4.9459   -0.3565    3.8332 C   0  0  0  0  0  0  0  0  0  0  0  0
    3.8097   -0.7614    3.1265 C   0  0  0  0  0  0  0  0  0  0  0  0
    3.3461   -2.0513    3.1780 C   0  0  0  0  0  0  0  0  0  0  0  0
    3.9063   -2.8523    4.1655 C   0  0  0  0  0  0  0  0  0  0  0  0
    5.0516   -2.5025    4.8733 C   0  0  0  0  0  0  0  0  0  0  0  0
    2.2560   -2.6451    2.3267 C   0  0  0  0  0  0  0  0  0  0  0  0
    1.9029   -2.2399    1.0123 O   0  0  0  0  0  0  0  0  0  0  0  0
    2.9274   -1.8564    0.1114 C   0  0  2  0  0  0  0  0  0  0  0  0
    2.2910   -1.0828   -1.0693 C   0  0  2  0  0  0  0  0  0  0  0  0
    3.3854   -0.6162   -2.0563 C   0  0  3  0  0  0  0  0  0  0  0  0
    4.4076   -1.7427   -2.4215 C   0  0  2  0  0  0  0  0  0  0  0  0
    5.0644   -2.2479   -1.2474 O   0  0  0  0  0  0  0  0  0  0  0  0
    4.1364   -2.8633   -0.2829 C   0  0  2  0  0  0  0  0  0  0  0  0
    3.9407   -4.2690   -0.6116 O   0  0  0  0  0  0  0  0  0  0  0  0
    2.6780   -4.7987   -0.2888 C   0  0  2  0  0  0  0  0  0  0  0  0
    2.4779   -5.7435    0.9794 C   0  0  2  0  0  0  0  0  0  0  0  0
    1.1480   -5.5250    1.4684 O   0  0  0  0  0  0  0  0  0  0  0  0
    0.1573   -5.3177    0.4582 C   0  0  1  0  0  0  0  0  0  0  0  0
    0.5078   -5.6295   -1.1369 C   0  0  3  0  0  0  0  0  0  0  0  0
    2.0271   -5.6489   -1.3931 C   0  0  1  0  0  0  0  0  0  0  0  0
    2.3615   -5.4891   -2.7639 O   0  0  0  0  0  0  0  0  0  0  0  0
    1.8931   -4.2507   -3.6645 S   0  0  0  0  0  0  0  0  0  0  0  0
    2.4523   -4.3706   -4.9985 O   0  0  0  0  0  0  0  0  0  0  0  0
    2.1014   -3.0937   -2.8885 O   0  0  0  0  0  0  0  0  0  0  0  0
    0.2986   -4.3354   -3.8436 O   0  0  0  0  0  0  0  0  0  0  0  0
   -0.1711   -6.7283   -1.7537 O   0  0  0  0  0  0  0  0  0  0  0  0
    0.0891   -7.2129   -3.1020 C   0  0  0  0  0  0  0  0  0  0  0  0
    1.3488   -8.0410   -3.2254 C   0  0  0  0  0  0  0  0  0  0  0  0
    1.8194   -8.7631   -2.1223 C   0  0  0  0  0  0  0  0  0  0  0  0
    3.1582   -9.1488   -2.0771 C   0  0  0  0  0  0  0  0  0  0  0  0
    3.9922   -8.9323   -3.1747 C   0  0  0  0  0  0  0  0  0  0  0  0
    3.4882   -8.3371   -4.3291 C   0  0  0  0  0  0  0  0  0  0  0  0
    2.1630   -7.9065   -4.3646 C   0  0  0  0  0  0  0  0  0  0  0  0
   -1.1072   -5.7352    1.0104 O   0  0  0  0  0  0  0  0  0  0  0  0
   -2.1659   -5.0061    0.4529 C   0  0  3  0  0  0  0  0  0  0  0  0
   -2.6439   -3.7132    1.1328 C   0  0  2  0  0  0  0  0  0  0  0  0
   -2.8978   -2.8607   -0.0115 O   0  0  0  0  0  0  0  0  0  0  0  0
   -3.8950   -3.4313   -0.9158 C   0  0  3  0  0  0  0  0  0  0  0  0
   -3.9810   -5.0484   -1.0814 C   0  0  1  0  0  0  0  0  0  0  0  0
   -3.4517   -5.7718    0.1968 C   0  0  1  0  0  0  0  0  0  0  0  0
   -3.3567   -7.1950    0.2964 O   0  0  0  0  0  0  0  0  0  0  0  0
   -2.3213   -8.1263   -0.5190 S   0  0  0  0  0  0  0  0  0  0  0  0
   -1.0903   -8.3456    0.2144 O   0  0  0  0  0  0  0  0  0  0  0  0
   -2.3887   -7.7270   -1.8999 O   0  0  0  0  0  0  0  0  0  0  0  0
   -3.0274   -9.5671   -0.5566 O   0  0  0  0  0  0  0  0  0  0  0  0
   -5.3058   -5.4287   -1.4861 O   0  0  0  0  0  0  0  0  0  0  0  0
   -5.4112   -6.8200   -1.7537 C   0  0  0  0  0  0  0  0  0  0  0  0
   -6.6965   -7.1863   -2.4214 C   0  0  0  0  0  0  0  0  0  0  0  0
   -6.6879   -7.9511   -3.5970 C   0  0  0  0  0  0  0  0  0  0  0  0
   -7.8874   -8.3629   -4.1654 C   0  0  0  0  0  0  0  0  0  0  0  0
   -9.0926   -8.0224   -3.5505 C   0  0  0  0  0  0  0  0  0  0  0  0
   -9.1029   -7.2824   -2.3661 C   0  0  0  0  0  0  0  0  0  0  0  0
   -7.9056   -6.8662   -1.8004 C   0  0  0  0  0  0  0  0  0  0  0  0
   -5.1517   -2.9378   -0.5278 O   0  0  0  0  0  0  0  0  0  0  0  0
   -5.5361   -1.6165   -0.9155 C   0  0  3  0  0  0  0  0  0  0  0  0
   -4.6210   -0.6540   -1.7423 C   0  0  2  0  0  0  0  0  0  0  0  0
   -4.0554    0.3832   -0.9438 O   0  0  0  0  0  0  0  0  0  0  0  0
   -4.9221    1.1697   -0.1500 C   0  0  3  0  0  0  0  0  0  0  0  0
   -6.2499    0.4988    0.1954 C   0  0  1  0  0  0  0  0  0  0  0  0
   -6.0218   -0.9852    0.4026 C   0  0  1  0  0  0  0  0  0  0  0  0
   -7.1541   -1.6702    0.9581 O   0  0  0  0  0  0  0  0  0  0  0  0
   -8.5270   -1.8673    0.1255 S   0  0  0  0  0  0  0  0  0  0  0  0
   -9.0829   -0.5725   -0.1974 O   0  0  0  0  0  0  0  0  0  0  0  0
   -8.3339   -2.8543   -0.9103 O   0  0  0  0  0  0  0  0  0  0  0  0
   -9.5228   -2.5169    1.2052 O   0  0  0  0  0  0  0  0  0  0  0  0
   -6.8507    1.0622    1.3311 O   0  0  0  0  0  0  0  0  0  0  0  0
   -7.2588    2.4217    1.2166 C   0  0  0  0  0  0  0  0  0  0  0  0
   -8.0417    2.6322    2.4706 C   0  0  0  0  0  0  0  0  0  0  0  0
   -7.5843    2.0393    3.6611 C   0  0  0  0  0  0  0  0  0  0  0  0
   -8.4503    1.8438    4.7210 C   0  0  0  0  0  0  0  0  0  0  0  0
   -9.7659    2.2779    4.6026 C   0  0  0  0  0  0  0  0  0  0  0  0
  -10.1772    3.0070    3.4807 C   0  0  0  0  0  0  0  0  0  0  0  0
   -9.3014    3.2215    2.4224 C   0  0  0  0  0  0  0  0  0  0  0  0
   -4.1432    1.5235    0.9975 O   0  0  0  0  0  0  0  0  0  0  0  0
   -3.6026    2.8603    1.0011 C   0  0  3  0  0  0  0  0  0  0  0  0
   -3.2850    3.4168   -0.4042 C   0  0  2  0  0  0  0  0  0  0  0  0
   -1.9058    3.6318   -0.6020 O   0  0  0  0  0  0  0  0  0  0  0  0
   -1.2997    4.5834    0.2455 C   0  0  3  0  0  0  0  0  0  0  0  0
   -1.6291    4.3118    1.7536 C   0  0  1  0  0  0  0  0  0  0  0  0
   -2.3236    2.9111    1.8737 C   0  0  1  0  0  0  0  0  0  0  0  0
   -2.5438    2.4142    3.1910 O   0  0  0  0  0  0  0  0  0  0  0  0
   -3.4023    3.1246    4.3506 S   0  0  0  0  0  0  0  0  0  0  0  0
   -4.7448    3.3544    3.8753 O   0  0  0  0  0  0  0  0  0  0  0  0
   -2.6334    4.2070    4.9119 O   0  0  0  0  0  0  0  0  0  0  0  0
   -3.4908    2.0251    5.5231 O   0  0  0  0  0  0  0  0  0  0  0  0
   -0.5114    4.5526    2.6350 O   0  0  0  0  0  0  0  0  0  0  0  0
   -0.0391    5.9234    2.6428 C   0  0  0  0  0  0  0  0  0  0  0  0
   -1.0675    6.9415    3.0587 C   0  0  0  0  0  0  0  0  0  0  0  0
   -1.6550    6.8988    4.3282 C   0  0  0  0  0  0  0  0  0  0  0  0
   -2.6657    7.7942    4.6765 C   0  0  0  0  0  0  0  0  0  0  0  0
   -3.0508    8.7851    3.7779 C   0  0  0  0  0  0  0  0  0  0  0  0
   -2.4260    8.8794    2.5349 C   0  0  0  0  0  0  0  0  0  0  0  0
   -1.4419    7.9597    2.1748 C   0  0  0  0  0  0  0  0  0  0  0  0
    0.0859    4.5679   -0.1323 O   0  0  0  0  0  0  0  0  0  0  0  0
    0.2141    4.9005   -1.5530 C   0  0  3  0  0  0  0  0  0  0  0  0
    0.8315    3.7087   -2.3167 C   0  0  2  0  0  0  0  0  0  0  0  0
    2.2571    3.7419   -2.4544 O   0  0  0  0  0  0  0  0  0  0  0  0
    3.0021    4.6399   -1.6436 C   0  0  3  0  0  0  0  0  0  0  0  0
    2.4937    6.0492   -1.8154 C   0  0  1  0  0  0  0  0  0  0  0  0
    0.9853    6.2155   -1.6718 C   0  0  1  0  0  0  0  0  0  0  0  0
    0.5029    6.9514   -2.8121 O   0  0  0  0  0  0  0  0  0  0  0  0
    0.9316    8.5208   -2.9647 S   0  0  0  0  0  0  0  0  0  0  0  0
    2.3454    8.6217   -3.2462 O   0  0  0  0  0  0  0  0  0  0  0  0
    0.2784    9.2806   -1.9262 O   0  0  0  0  0  0  0  0  0  0  0  0
    0.2391    8.9204   -4.3565 O   0  0  0  0  0  0  0  0  0  0  0  0
    3.0388    6.9701   -0.8967 O   0  0  0  0  0  0  0  0  0  0  0  0
    4.4308    7.2269   -0.9551 C   0  0  0  0  0  0  0  0  0  0  0  0
    4.5384    8.3023    0.0844 C   0  0  0  0  0  0  0  0  0  0  0  0
    4.7631    7.9536    1.4230 C   0  0  0  0  0  0  0  0  0  0  0  0
    4.4716    8.8626    2.4380 C   0  0  0  0  0  0  0  0  0  0  0  0
    3.9628   10.1225    2.1233 C   0  0  0  0  0  0  0  0  0  0  0  0
    3.8021   10.5002    0.7913 C   0  0  0  0  0  0  0  0  0  0  0  0
    4.1055    9.6003   -0.2275 C   0  0  0  0  0  0  0  0  0  0  0  0
    3.1948    4.2632   -0.2783 O   0  0  0  0  0  0  0  0  0  0  0  0
    3.8361    2.9989   -0.2354 C   0  0  3  0  0  0  0  0  0  0  0  0
    3.5892    2.2222    1.0336 C   0  0  2  0  0  0  0  0  0  0  0  0
    3.7367    0.8524    0.6632 O   0  0  0  0  0  0  0  0  0  0  0  0
    4.7163    0.5434   -0.3270 C   0  0  3  0  0  0  0  0  0  0  0  0
    4.1326    0.5460   -1.6372 O   0  0  0  0  0  0  0  0  0  0  0  0
    5.9070    1.4910   -0.2566 C   0  0  1  0  0  0  0  0  0  0  0  0
    5.3893    2.9563   -0.3496 C   0  0  1  0  0  0  0  0  0  0  0  0
    5.8481    3.5298   -1.5619 O   0  0  0  0  0  0  0  0  0  0  0  0
    7.4026    3.9946   -1.6012 S   0  0  0  0  0  0  0  0  0  0  0  0
    8.2406    2.8270   -1.7125 O   0  0  0  0  0  0  0  0  0  0  0  0
    7.5789    4.9978   -0.5772 O   0  0  0  0  0  0  0  0  0  0  0  0
    7.4528    4.7831   -2.9983 O   0  0  0  0  0  0  0  0  0  0  0  0
    6.6245    1.3745    0.9859 O   0  0  0  0  0  0  0  0  0  0  0  0
    7.2644    0.1151    1.2468 C   0  0  0  0  0  0  0  0  0  0  0  0
    8.1469    0.2122    2.4769 C   0  0  0  0  0  0  0  0  0  0  0  0
    8.2557    1.4017    3.2117 C   0  0  0  0  0  0  0  0  0  0  0  0
    9.1522    1.5104    4.2751 C   0  0  0  0  0  0  0  0  0  0  0  0
    9.9386    0.4211    4.6376 C   0  0  0  0  0  0  0  0  0  0  0  0
    9.7867   -0.7938    3.9720 C   0  0  0  0  0  0  0  0  0  0  0  0
    8.8895   -0.9021    2.9034 C   0  0  0  0  0  0  0  0  0  0  0  0
    2.2474    2.4139    1.6969 C   0  0  0  0  0  0  0  0  0  0  0  0
    2.3653    1.8928    3.0291 O   0  0  0  0  0  0  0  0  0  0  0  0
    1.0139    1.8618    3.9058 S   0  0  0  0  0  0  0  0  0  0  0  0
   -0.0628    1.7872    2.9521 O   0  0  0  0  0  0  0  0  0  0  0  0
    1.1189    0.9526    5.0212 O   0  0  0  0  0  0  0  0  0  0  0  0
    0.9954    3.3722    4.4529 O   0  0  0  0  0  0  0  0  0  0  0  0
    0.2652    3.6215   -3.7552 C   0  0  0  0  0  0  0  0  0  0  0  0
    0.8347    2.4954   -4.4208 O   0  0  0  0  0  0  0  0  0  0  0  0
    0.4395    2.2519   -5.9741 S   0  0  0  0  0  0  0  0  0  0  0  0
   -0.9763    1.9910   -6.0515 O   0  0  0  0  0  0  0  0  0  0  0  0
    1.0785    3.2818   -6.7621 O   0  0  0  0  0  0  0  0  0  0  0  0
    1.2190    0.8843   -6.3162 O   0  0  0  0  0  0  0  0  0  0  0  0
   -4.1142    4.6642   -0.6774 C   0  0  0  0  0  0  0  0  0  0  0  0
   -3.7721    5.1311   -1.9702 O   0  0  0  0  0  0  0  0  0  0  0  0
   -4.4929    6.4855   -2.4759 S   0  0  0  0  0  0  0  0  0  0  0  0
   -3.9768    6.7675   -3.7969 O   0  0  0  0  0  0  0  0  0  0  0  0
   -5.9003    6.3762   -2.1897 O   0  0  0  0  0  0  0  0  0  0  0  0
   -3.8495    7.5913   -1.5013 O   0  0  0  0  0  0  0  0  0  0  0  0
   -5.3753   -0.0249   -2.9428 C   0  0  0  0  0  0  0  0  0  0  0  0
   -4.4773    0.8184   -3.6568 O   0  0  0  0  0  0  0  0  0  0  0  0
   -5.0523    1.5926   -4.9602 S   0  0  0  0  0  0  0  0  0  0  0  0
   -6.1564    2.4153   -4.5170 O   0  0  0  0  0  0  0  0  0  0  0  0
   -5.1826    0.6415   -6.0375 O   0  0  0  0  0  0  0  0  0  0  0  0
   -3.8679    2.6175   -5.3145 O   0  0  0  0  0  0  0  0  0  0  0  0
   -1.6867   -3.2332    2.2386 C   0  0  0  0  0  0  0  0  0  0  0  0
   -2.1520   -2.0105    2.7748 O   0  0  0  0  0  0  0  0  0  0  0  0
   -1.2147   -1.1747    3.8037 S   0  0  0  0  0  0  0  0  0  0  0  0
    0.1192   -0.9970    3.2905 O   0  0  0  0  0  0  0  0  0  0  0  0
   -1.9820   -0.0566    4.2915 O   0  0  0  0  0  0  0  0  0  0  0  0
   -1.0265   -2.1374    5.0721 O   0  0  0  0  0  0  0  0  0  0  0  0
    3.4853   -5.8291    2.1546 C   0  0  0  0  0  0  0  0  0  0  0  0
    2.8865   -6.6285    3.1921 O   0  0  0  0  0  0  0  0  0  0  0  0
    3.5988   -6.7335    4.6484 S   0  0  0  0  0  0  0  0  0  0  0  0
    4.9796   -7.0949    4.4247 O   0  0  0  0  0  0  0  0  0  0  0  0
    3.2226   -5.6096    5.4697 O   0  0  0  0  0  0  0  0  0  0  0  0
    2.8853   -8.0199    5.2969 O   0  0  0  0  0  0  0  0  0  0  0  0
    5.2919   -1.2636   -3.5907 C   0  0  0  0  0  0  0  0  0  0  0  0
    6.0898   -2.3512   -4.0468 O   0  0  0  0  0  0  0  0  0  0  0  0
    6.9970   -2.0863   -5.3615 S   0  0  0  0  0  0  0  0  0  0  0  0
    7.8668   -0.9676   -5.0912 O   0  0  0  0  0  0  0  0  0  0  0  0
    6.1275   -2.1197   -6.5170 O   0  0  0  0  0  0  0  0  0  0  0  0
    7.8905   -3.4212   -5.4504 O   0  0  0  0  0  0  0  0  0  0  0  0
    1.2320   -0.1207   -0.7697 O   0  0  0  0  0  0  0  0  0  0  0  0
   -0.2756   -0.8115   -0.6077 S   0  0  0  0  0  0  0  0  0  0  0  0
   -0.4241   -1.2746    0.7400 O   0  0  0  0  0  0  0  0  0  0  0  0
   -0.5470   -1.6909   -1.7260 O   0  0  0  0  0  0  0  0  0  0  0  0
   -1.3570    0.3647   -0.6435 O   0  0  0  0  0  0  0  0  0  0  0  0
    6.5060   -0.9553    5.2014 H   0  0  0  0  0  0  0  0  0  0  0  0
    5.3101    0.6606    3.7238 H   0  0  0  0  0  0  0  0  0  0  0  0
    3.2399   -0.0659    2.5445 H   0  0  0  0  0  0  0  0  0  0  0  0
    3.3854   -3.7620    4.4035 H   0  0  0  0  0  0  0  0  0  0  0  0
    5.4737   -3.2020    5.5891 H   0  0  0  0  0  0  0  0  0  0  0  0
    1.3603   -2.8350    2.9177 H   0  0  0  0  0  0  0  0  0  0  0  0
    2.6128   -3.6237    2.1214 H   0  0  0  0  0  0  0  0  0  0  0  0
    3.4401   -1.1336    0.6879 H   0  0  0  0  0  0  0  0  0  0  0  0
    1.6898   -1.7883   -1.5855 H   0  0  0  0  0  0  0  0  0  0  0  0
    2.8703   -0.2977   -2.9752 H   0  0  0  0  0  0  0  0  0  0  0  0
    4.0311   -2.6451   -2.8698 H   0  0  0  0  0  0  0  0  0  0  0  0
    4.7390   -2.9221    0.6289 H   0  0  0  0  0  0  0  0  0  0  0  0
    2.0146   -3.9532   -0.2339 H   0  0  0  0  0  0  0  0  0  0  0  0
    2.4220   -6.7966    0.6789 H   0  0  0  0  0  0  0  0  0  0  0  0
    0.1096   -4.2221    0.4326 H   0  0  0  0  0  0  0  0  0  0  0  0
    0.0891   -4.7303   -1.6020 H   0  0  0  0  0  0  0  0  0  0  0  0
    2.4393   -6.6352   -1.2104 H   0  0  0  0  0  0  0  0  0  0  0  0
    0.0585   -4.0271   -4.7422 H   0  0  0  0  0  0  0  0  0  0  0  0
    0.0515   -6.4382   -3.8697 H   0  0  0  0  0  0  0  0  0  0  0  0
   -0.7252   -7.8773   -3.4039 H   0  0  0  0  0  0  0  0  0  0  0  0
    1.2099   -8.8395   -1.2220 H   0  0  0  0  0  0  0  0  0  0  0  0
    3.5772   -9.5112   -1.1423 H   0  0  0  0  0  0  0  0  0  0  0  0
    5.0503   -9.1721   -3.1082 H   0  0  0  0  0  0  0  0  0  0  0  0
    4.1543   -8.1055   -5.1574 H   0  0  0  0  0  0  0  0  0  0  0  0
    1.8307   -7.3243   -5.2229 H   0  0  0  0  0  0  0  0  0  0  0  0
   -1.7908   -4.7143   -0.5348 H   0  0  0  0  0  0  0  0  0  0  0  0
   -3.6144   -3.7831    1.6475 H   0  0  0  0  0  0  0  0  0  0  0  0
   -3.6671   -3.0785   -1.9243 H   0  0  0  0  0  0  0  0  0  0  0  0
   -3.3098   -5.2886   -1.9198 H   0  0  0  0  0  0  0  0  0  0  0  0
   -4.1966   -5.5711    0.9753 H   0  0  0  0  0  0  0  0  0  0  0  0
   -2.5535  -10.0309   -1.2806 H   0  0  0  0  0  0  0  0  0  0  0  0
   -4.5899   -7.1206   -2.4036 H   0  0  0  0  0  0  0  0  0  0  0  0
   -5.3987   -7.3742   -0.8126 H   0  0  0  0  0  0  0  0  0  0  0  0
   -5.7475   -8.2353   -4.0651 H   0  0  0  0  0  0  0  0  0  0  0  0
   -7.8807   -8.9453   -5.0829 H   0  0  0  0  0  0  0  0  0  0  0  0
  -10.0312   -8.3310   -3.9987 H   0  0  0  0  0  0  0  0  0  0  0  0
  -10.0385   -7.0219   -1.8809 H   0  0  0  0  0  0  0  0  0  0  0  0
   -7.9004   -6.2983   -0.8711 H   0  0  0  0  0  0  0  0  0  0  0  0
   -6.3733   -1.8042   -1.5852 H   0  0  0  0  0  0  0  0  0  0  0  0
   -3.7544   -1.1569   -2.1717 H   0  0  0  0  0  0  0  0  0  0  0  0
   -5.2294    2.0625   -0.7008 H   0  0  0  0  0  0  0  0  0  0  0  0
   -6.9355    0.6264   -0.6476 H   0  0  0  0  0  0  0  0  0  0  0  0
   -5.2520   -1.1104    1.1781 H   0  0  0  0  0  0  0  0  0  0  0  0
  -10.3876   -2.0770    1.0911 H   0  0  0  0  0  0  0  0  0  0  0  0
   -6.4158    3.1109    1.1653 H   0  0  0  0  0  0  0  0  0  0  0  0
   -7.8852    2.5426    0.3247 H   0  0  0  0  0  0  0  0  0  0  0  0
   -6.5818    1.6131    3.7084 H   0  0  0  0  0  0  0  0  0  0  0  0
   -8.1077    1.2886    5.5887 H   0  0  0  0  0  0  0  0  0  0  0  0
  -10.4797    2.0267    5.3795 H   0  0  0  0  0  0  0  0  0  0  0  0
  -11.2037    3.3525    3.4040 H   0  0  0  0  0  0  0  0  0  0  0  0
   -9.6297    3.7508    1.5312 H   0  0  0  0  0  0  0  0  0  0  0  0
   -4.3623    3.4818    1.4808 H   0  0  0  0  0  0  0  0  0  0  0  0
   -3.4939    2.7173   -1.2115 H   0  0  0  0  0  0  0  0  0  0  0  0
   -1.6719    5.5870    0.0095 H   0  0  0  0  0  0  0  0  0  0  0  0
   -2.4210    5.0042    2.0617 H   0  0  0  0  0  0  0  0  0  0  0  0
   -1.6612    2.1695    1.4167 H   0  0  0  0  0  0  0  0  0  0  0  0
   -3.5665    2.4808    6.3830 H   0  0  0  0  0  0  0  0  0  0  0  0
    0.3990    6.1822    1.6744 H   0  0  0  0  0  0  0  0  0  0  0  0
    0.7831    5.9688    3.3646 H   0  0  0  0  0  0  0  0  0  0  0  0
   -1.3407    6.1511    5.0540 H   0  0  0  0  0  0  0  0  0  0  0  0
   -3.1481    7.7127    5.6480 H   0  0  0  0  0  0  0  0  0  0  0  0
   -3.8260    9.4942    4.0549 H   0  0  0  0  0  0  0  0  0  0  0  0
   -2.6993    9.6741    1.8463 H   0  0  0  0  0  0  0  0  0  0  0  0
   -0.9528    8.0554    1.2083 H   0  0  0  0  0  0  0  0  0  0  0  0
   -0.7859    5.0837   -1.9696 H   0  0  0  0  0  0  0  0  0  0  0  0
    0.5970    2.7627   -1.8109 H   0  0  0  0  0  0  0  0  0  0  0  0
    3.9937    4.6539   -2.0936 H   0  0  0  0  0  0  0  0  0  0  0  0
    2.7757    6.3197   -2.8390 H   0  0  0  0  0  0  0  0  0  0  0  0
    0.7398    6.8147   -0.7827 H   0  0  0  0  0  0  0  0  0  0  0  0
    0.9620    9.2115   -4.9537 H   0  0  0  0  0  0  0  0  0  0  0  0
    5.0139    6.3403   -0.6872 H   0  0  0  0  0  0  0  0  0  0  0  0
    4.7260    7.5726   -1.9509 H   0  0  0  0  0  0  0  0  0  0  0  0
    5.0855    6.9477    1.6836 H   0  0  0  0  0  0  0  0  0  0  0  0
    4.5932    8.5684    3.4768 H   0  0  0  0  0  0  0  0  0  0  0  0
    3.6719   10.8042    2.9179 H   0  0  0  0  0  0  0  0  0  0  0  0
    3.3888   11.4745    0.5463 H   0  0  0  0  0  0  0  0  0  0  0  0
    3.9091    9.8776   -1.2610 H   0  0  0  0  0  0  0  0  0  0  0  0
    3.3898    2.4411   -1.0527 H   0  0  0  0  0  0  0  0  0  0  0  0
    4.3362    2.4445    1.8072 H   0  0  0  0  0  0  0  0  0  0  0  0
    5.1129   -0.4329   -0.1012 H   0  0  0  0  0  0  0  0  0  0  0  0
    6.5682    1.2447   -1.0931 H   0  0  0  0  0  0  0  0  0  0  0  0
    5.7883    3.5499    0.4873 H   0  0  0  0  0  0  0  0  0  0  0  0
    7.1143    5.6848   -2.8415 H   0  0  0  0  0  0  0  0  0  0  0  0
    6.5162   -0.6630    1.4311 H   0  0  0  0  0  0  0  0  0  0  0  0
    7.8830   -0.1639    0.3868 H   0  0  0  0  0  0  0  0  0  0  0  0
    7.6463    2.2640    2.9533 H   0  0  0  0  0  0  0  0  0  0  0  0
    9.2443    2.4544    4.8050 H   0  0  0  0  0  0  0  0  0  0  0  0
   10.6668    0.5212    5.4384 H   0  0  0  0  0  0  0  0  0  0  0  0
   10.3799   -1.6529    4.2766 H   0  0  0  0  0  0  0  0  0  0  0  0
    8.7819   -1.8630    2.4038 H   0  0  0  0  0  0  0  0  0  0  0  0
    1.4746    1.8700    1.1405 H   0  0  0  0  0  0  0  0  0  0  0  0
    1.9909    3.4737    1.7761 H   0  0  0  0  0  0  0  0  0  0  0  0
    0.4764    3.8610    3.7699 H   0  0  0  0  0  0  0  0  0  0  0  0
   -0.8261    3.5121   -3.7413 H   0  0  0  0  0  0  0  0  0  0  0  0
    0.5278    4.5293   -4.3114 H   0  0  0  0  0  0  0  0  0  0  0  0
    2.1390    1.1128   -6.5564 H   0  0  0  0  0  0  0  0  0  0  0  0
   -3.9090    5.4417    0.0651 H   0  0  0  0  0  0  0  0  0  0  0  0
   -5.1776    4.4079   -0.6372 H   0  0  0  0  0  0  0  0  0  0  0  0
   -3.1583    8.0713   -2.0047 H   0  0  0  0  0  0  0  0  0  0  0  0
   -5.7530   -0.8071   -3.6101 H   0  0  0  0  0  0  0  0  0  0  0  0
   -6.2223    0.5828   -2.6116 H   0  0  0  0  0  0  0  0  0  0  0  0
   -4.0455    3.4722   -4.8787 H   0  0  0  0  0  0  0  0  0  0  0  0
   -1.6693   -3.9785    3.0446 H   0  0  0  0  0  0  0  0  0  0  0  0
   -0.6650   -3.1334    1.8908 H   0  0  0  0  0  0  0  0  0  0  0  0
   -0.4107   -1.6266    5.6452 H   0  0  0  0  0  0  0  0  0  0  0  0
    3.7838   -4.8857    2.5885 H   0  0  0  0  0  0  0  0  0  0  0  0
    4.4148   -6.2932    1.8136 H   0  0  0  0  0  0  0  0  0  0  0  0
    3.0547   -8.7918    4.7296 H   0  0  0  0  0  0  0  0  0  0  0  0
    5.9200   -0.3992   -3.3572 H   0  0  0  0  0  0  0  0  0  0  0  0
    4.6135   -0.9925   -4.4164 H   0  0  0  0  0  0  0  0  0  0  0  0
    7.4025   -4.0681   -5.9985 H   0  0  0  0  0  0  0  0  0  0  0  0
   -1.8734    0.2025    0.1907 H   0  0  0  0  0  0  0  0  0  0  0  0
  1  2  2  0  0  0  0
  1  6  1  0  0  0  0
  1183  1  0  0  0  0
  2  3  1  0  0  0  0
  2184  1  0  0  0  0
  3  4  2  0  0  0  0
  3185  1  0  0  0  0
  4  5  1  0  0  0  0
  4  7  1  0  0  0  0
  5  6  2  0  0  0  0
  5186  1  0  0  0  0
  6187  1  0  0  0  0
  7  8  1  0  0  0  0
  7188  1  0  0  0  0
  7189  1  0  0  0  0
  8  9  1  0  0  0  0
  9 10  1  0  0  0  0
  9 14  1  0  0  0  0
  9190  1  1  0  0  0
 10 11  1  0  0  0  0
 10178  1  0  0  0  0
 10191  1  6  0  0  0
 11 12  1  0  0  0  0
 11120  1  0  0  0  0
 11192  1  0  0  0  0
 12 13  1  0  0  0  0
 12172  1  0  0  0  0
 12193  1  6  0  0  0
 13 14  1  0  0  0  0
 14 15  1  0  0  0  0
 14194  1  1  0  0  0
 15 16  1  0  0  0  0
 16 17  1  0  0  0  0
 16 21  1  0  0  0  0
 16195  1  1  0  0  0
 17 18  1  0  0  0  0
 17166  1  0  0  0  0
 17196  1  6  0  0  0
 18 19  1  0  0  0  0
 19 20  1  0  0  0  0
 19 35  1  0  0  0  0
 19197  1  1  0  0  0
 20 21  1  0  0  0  0
 20 27  1  0  0  0  0
 20198  1  0  0  0  0
 21 22  1  0  0  0  0
 21199  1  1  0  0  0
 22 23  1  0  0  0  0
 23 24  2  0  0  0  0
 23 25  2  0  0  0  0
 23 26  1  0  0  0  0
 26200  1  0  0  0  0
 27 28  1  0  0  0  0
 28 29  1  0  0  0  0
 28201  1  0  0  0  0
 28202  1  0  0  0  0
 29 30  2  0  0  0  0
 29 34  1  0  0  0  0
 30 31  1  0  0  0  0
 30203  1  0  0  0  0
 31 32  2  0  0  0  0
 31204  1  0  0  0  0
 32 33  1  0  0  0  0
 32205  1  0  0  0  0
 33 34  2  0  0  0  0
 33206  1  0  0  0  0
 34207  1  0  0  0  0
 35 36  1  0  0  0  0
 36 37  1  0  0  0  0
 36 41  1  0  0  0  0
 36208  1  0  0  0  0
 37 38  1  0  0  0  0
 37160  1  0  0  0  0
 37209  1  1  0  0  0
 38 39  1  0  0  0  0
 39 40  1  0  0  0  0
 39 55  1  0  0  0  0
 39210  1  0  0  0  0
 40 41  1  0  0  0  0
 40 47  1  0  0  0  0
 40211  1  6  0  0  0
 41 42  1  0  0  0  0
 41212  1  1  0  0  0
 42 43  1  0  0  0  0
 43 44  2  0  0  0  0
 43 45  2  0  0  0  0
 43 46  1  0  0  0  0
 46213  1  0  0  0  0
 47 48  1  0  0  0  0
 48 49  1  0  0  0  0
 48214  1  0  0  0  0
 48215  1  0  0  0  0
 49 50  2  0  0  0  0
 49 54  1  0  0  0  0
 50 51  1  0  0  0  0
 50216  1  0  0  0  0
 51 52  2  0  0  0  0
 51217  1  0  0  0  0
 52 53  1  0  0  0  0
 52218  1  0  0  0  0
 53 54  2  0  0  0  0
 53219  1  0  0  0  0
 54220  1  0  0  0  0
 55 56  1  0  0  0  0
 56 57  1  0  0  0  0
 56 61  1  0  0  0  0
 56221  1  0  0  0  0
 57 58  1  0  0  0  0
 57154  1  0  0  0  0
 57222  1  6  0  0  0
 58 59  1  0  0  0  0
 59 60  1  0  0  0  0
 59 75  1  0  0  0  0
 59223  1  0  0  0  0
 60 61  1  0  0  0  0
 60 67  1  0  0  0  0
 60224  1  6  0  0  0
 61 62  1  0  0  0  0
 61225  1  1  0  0  0
 62 63  1  0  0  0  0
 63 64  2  0  0  0  0
 63 65  2  0  0  0  0
 63 66  1  0  0  0  0
 66226  1  0  0  0  0
 67 68  1  0  0  0  0
 68 69  1  0  0  0  0
 68227  1  0  0  0  0
 68228  1  0  0  0  0
 69 70  2  0  0  0  0
 69 74  1  0  0  0  0
 70 71  1  0  0  0  0
 70229  1  0  0  0  0
 71 72  2  0  0  0  0
 71230  1  0  0  0  0
 72 73  1  0  0  0  0
 72231  1  0  0  0  0
 73 74  2  0  0  0  0
 73232  1  0  0  0  0
 74233  1  0  0  0  0
 75 76  1  0  0  0  0
 76 77  1  0  0  0  0
 76 81  1  0  0  0  0
 76234  1  0  0  0  0
 77 78  1  0  0  0  0
 77148  1  0  0  0  0
 77235  1  6  0  0  0
 78 79  1  0  0  0  0
 79 80  1  0  0  0  0
 79 95  1  0  0  0  0
 79236  1  0  0  0  0
 80 81  1  0  0  0  0
 80 87  1  0  0  0  0
 80237  1  1  0  0  0
 81 82  1  0  0  0  0
 81238  1  6  0  0  0
 82 83  1  0  0  0  0
 83 84  2  0  0  0  0
 83 85  2  0  0  0  0
 83 86  1  0  0  0  0
 86239  1  0  0  0  0
 87 88  1  0  0  0  0
 88 89  1  0  0  0  0
 88240  1  0  0  0  0
 88241  1  0  0  0  0
 89 90  2  0  0  0  0
 89 94  1  0  0  0  0
 90 91  1  0  0  0  0
 90242  1  0  0  0  0
 91 92  2  0  0  0  0
 91243  1  0  0  0  0
 92 93  1  0  0  0  0
 92244  1  0  0  0  0
 93 94  2  0  0  0  0
 93245  1  0  0  0  0
 94246  1  0  0  0  0
 95 96  1  0  0  0  0
 96 97  1  0  0  0  0
 96101  1  0  0  0  0
 96247  1  0  0  0  0
 97 98  1  0  0  0  0
 97142  1  0  0  0  0
 97248  1  1  0  0  0
 98 99  1  0  0  0  0
 99100  1  0  0  0  0
 99115  1  0  0  0  0
 99249  1  0  0  0  0
100101  1  0  0  0  0
100107  1  0  0  0  0
100250  1  6  0  0  0
101102  1  0  0  0  0
101251  1  1  0  0  0
102103  1  0  0  0  0
103104  2  0  0  0  0
103105  2  0  0  0  0
103106  1  0  0  0  0
106252  1  0  0  0  0
107108  1  0  0  0  0
108109  1  0  0  0  0
108253  1  0  0  0  0
108254  1  0  0  0  0
109110  2  0  0  0  0
109114  1  0  0  0  0
110111  1  0  0  0  0
110255  1  0  0  0  0
111112  2  0  0  0  0
111256  1  0  0  0  0
112113  1  0  0  0  0
112257  1  0  0  0  0
113114  2  0  0  0  0
113258  1  0  0  0  0
114259  1  0  0  0  0
115116  1  0  0  0  0
116117  1  0  0  0  0
116122  1  0  0  0  0
116260  1  0  0  0  0
117118  1  0  0  0  0
117136  1  0  0  0  0
117261  1  1  0  0  0
118119  1  0  0  0  0
119120  1  0  0  0  0
119121  1  0  0  0  0
119262  1  0  0  0  0
121122  1  0  0  0  0
121128  1  0  0  0  0
121263  1  6  0  0  0
122123  1  0  0  0  0
122264  1  1  0  0  0
123124  1  0  0  0  0
124125  2  0  0  0  0
124126  2  0  0  0  0
124127  1  0  0  0  0
127265  1  0  0  0  0
128129  1  0  0  0  0
129130  1  0  0  0  0
129266  1  0  0  0  0
129267  1  0  0  0  0
130131  2  0  0  0  0
130135  1  0  0  0  0
131132  1  0  0  0  0
131268  1  0  0  0  0
132133  2  0  0  0  0
132269  1  0  0  0  0
133134  1  0  0  0  0
133270  1  0  0  0  0
134135  2  0  0  0  0
134271  1  0  0  0  0
135272  1  0  0  0  0
136137  1  0  0  0  0
136273  1  0  0  0  0
136274  1  0  0  0  0
137138  1  0  0  0  0
138139  2  0  0  0  0
138140  2  0  0  0  0
138141  1  0  0  0  0
141275  1  0  0  0  0
142143  1  0  0  0  0
142276  1  0  0  0  0
142277  1  0  0  0  0
143144  1  0  0  0  0
144145  2  0  0  0  0
144146  2  0  0  0  0
144147  1  0  0  0  0
147278  1  0  0  0  0
148149  1  0  0  0  0
148279  1  0  0  0  0
148280  1  0  0  0  0
149150  1  0  0  0  0
150151  2  0  0  0  0
150152  2  0  0  0  0
150153  1  0  0  0  0
153281  1  0  0  0  0
154155  1  0  0  0  0
154282  1  0  0  0  0
154283  1  0  0  0  0
155156  1  0  0  0  0
156157  2  0  0  0  0
156158  2  0  0  0  0
156159  1  0  0  0  0
159284  1  0  0  0  0
160161  1  0  0  0  0
160285  1  0  0  0  0
160286  1  0  0  0  0
161162  1  0  0  0  0
162163  2  0  0  0  0
162164  2  0  0  0  0
162165  1  0  0  0  0
165287  1  0  0  0  0
166167  1  0  0  0  0
166288  1  0  0  0  0
166289  1  0  0  0  0
167168  1  0  0  0  0
168169  2  0  0  0  0
168170  2  0  0  0  0
168171  1  0  0  0  0
171290  1  0  0  0  0
172173  1  0  0  0  0
172291  1  0  0  0  0
172292  1  0  0  0  0
173174  1  0  0  0  0
174175  2  0  0  0  0
174176  2  0  0  0  0
174177  1  0  0  0  0
177293  1  0  0  0  0
178179  1  0  0  0  0
179180  2  0  0  0  0
179181  2  0  0  0  0
179182  1  0  0  0  0
182294  1  0  0  0  0
M  END
