
 OpenBabel10072620113D

 60 60  0  0  0  0  0  0  0  0999 V2000
    0.9488   -0.0988   -0.1282 C   0  0  0  0  0  0  0  0  0  0  0  0
    2.4679   -0.1396   -0.1716 C   0  0  0  0  0  0  0  0  0  0  0  0
    3.0012   -1.5168    0.2229 C   0  0  0  0  0  0  0  0  0  0  0  0
    4.5291   -1.5538    0.1745 C   0  0  0  0  0  0  0  0  0  0  0  0
    5.0675   -2.9338    0.5563 C   0  0  0  0  0  0  0  0  0  0  0  0
    6.5957   -2.9632    0.5044 C   0  0  0  0  0  0  0  0  0  0  0  0
    7.1440   -4.3447    0.8659 C   0  0  0  0  0  0  0  0  0  0  0  0
    8.6728   -4.3568    0.8260 C   0  0  0  0  0  0  0  0  0  0  0  0
    9.2363   -5.7308    1.1932 C   0  0  0  0  0  0  0  0  0  0  0  0
   10.7655   -5.7212    1.1696 C   0  0  0  0  0  0  0  0  0  0  0  0
   11.3463   -7.0762    1.5752 C   0  0  0  0  0  0  0  0  0  0  0  0
   12.8703   -7.0293    1.6001 C   0  0  0  0  0  0  0  0  0  0  0  0
   13.4375   -8.2987    2.0068 N   0  0  0  0  0  0  0  0  0  0  0  0
   14.8009   -8.4662    1.9413 C   0  0  0  0  0  0  0  0  0  0  0  0
   15.5787   -7.6392    1.4874 O   0  0  0  0  0  0  0  0  0  0  0  0
   15.1675   -9.6805    2.4658 N   0  0  0  0  0  0  0  0  0  0  0  0
   16.5591  -10.1107    2.4489 C   0  0  0  0  0  0  0  0  0  0  0  0
   16.9644  -10.6213    1.0587 C   0  0  0  0  0  0  0  0  0  0  0  0
   18.4012  -11.1379    1.0466 C   0  0  0  0  0  0  0  0  0  0  0  0
   18.6262  -12.2020    2.1165 C   0  0  0  0  0  0  0  0  0  0  0  0
   18.2269  -11.6978    3.4999 C   0  0  0  0  0  0  0  0  0  0  0  0
   16.7886  -11.1873    3.5155 C   0  0  0  0  0  0  0  0  0  0  0  0
    0.5877    0.8938   -0.4150 H   0  0  0  0  0  0  0  0  0  0  0  0
    0.5795   -0.3173    0.8789 H   0  0  0  0  0  0  0  0  0  0  0  0
    0.5173   -0.8303   -0.8190 H   0  0  0  0  0  0  0  0  0  0  0  0
    2.8681    0.6234    0.5062 H   0  0  0  0  0  0  0  0  0  0  0  0
    2.8057    0.1153   -1.1830 H   0  0  0  0  0  0  0  0  0  0  0  0
    2.5927   -2.2766   -0.4545 H   0  0  0  0  0  0  0  0  0  0  0  0
    2.6592   -1.7678    1.2344 H   0  0  0  0  0  0  0  0  0  0  0  0
    4.9362   -0.7984    0.8577 H   0  0  0  0  0  0  0  0  0  0  0  0
    4.8701   -1.2936   -0.8349 H   0  0  0  0  0  0  0  0  0  0  0  0
    4.6615   -3.6889   -0.1276 H   0  0  0  0  0  0  0  0  0  0  0  0
    4.7279   -3.1950    1.5661 H   0  0  0  0  0  0  0  0  0  0  0  0
    6.9990   -2.2147    1.1976 H   0  0  0  0  0  0  0  0  0  0  0  0
    6.9345   -2.6874   -0.5017 H   0  0  0  0  0  0  0  0  0  0  0  0
    6.7504   -5.0921    0.1663 H   0  0  0  0  0  0  0  0  0  0  0  0
    6.8001   -4.6266    1.8683 H   0  0  0  0  0  0  0  0  0  0  0  0
    9.0617   -3.6041    1.5228 H   0  0  0  0  0  0  0  0  0  0  0  0
    9.0160   -4.0751   -0.1768 H   0  0  0  0  0  0  0  0  0  0  0  0
    8.8610   -6.4845    0.4905 H   0  0  0  0  0  0  0  0  0  0  0  0
    8.8855   -6.0154    2.1926 H   0  0  0  0  0  0  0  0  0  0  0  0
   11.1356   -4.9463    1.8520 H   0  0  0  0  0  0  0  0  0  0  0  0
   11.1160   -5.4584    0.1638 H   0  0  0  0  0  0  0  0  0  0  0  0
   11.0102   -7.8519    0.8761 H   0  0  0  0  0  0  0  0  0  0  0  0
   10.9707   -7.3604    2.5661 H   0  0  0  0  0  0  0  0  0  0  0  0
   13.2224   -6.2675    2.3056 H   0  0  0  0  0  0  0  0  0  0  0  0
   13.2642   -6.7730    0.6097 H   0  0  0  0  0  0  0  0  0  0  0  0
   13.0252   -8.7367    2.8176 H   0  0  0  0  0  0  0  0  0  0  0  0
   14.4644  -10.3993    2.3742 H   0  0  0  0  0  0  0  0  0  0  0  0
   17.1784   -9.2374    2.6933 H   0  0  0  0  0  0  0  0  0  0  0  0
   16.8607   -9.8242    0.3130 H   0  0  0  0  0  0  0  0  0  0  0  0
   16.2860  -11.4264    0.7471 H   0  0  0  0  0  0  0  0  0  0  0  0
   19.0901  -10.3007    1.2138 H   0  0  0  0  0  0  0  0  0  0  0  0
   18.6360  -11.5520    0.0597 H   0  0  0  0  0  0  0  0  0  0  0  0
   19.6799  -12.5025    2.1232 H   0  0  0  0  0  0  0  0  0  0  0  0
   18.0396  -13.0959    1.8710 H   0  0  0  0  0  0  0  0  0  0  0  0
   18.9041  -10.8904    3.8045 H   0  0  0  0  0  0  0  0  0  0  0  0
   18.3409  -12.5037    4.2335 H   0  0  0  0  0  0  0  0  0  0  0  0
   16.5526  -10.7858    4.5086 H   0  0  0  0  0  0  0  0  0  0  0  0
   16.1034  -12.0292    3.3501 H   0  0  0  0  0  0  0  0  0  0  0  0
  1  2  1  0  0  0  0
  1 23  1  0  0  0  0
  1 24  1  0  0  0  0
  1 25  1  0  0  0  0
  2  3  1  0  0  0  0
  2 26  1  0  0  0  0
  2 27  1  0  0  0  0
  3  4  1  0  0  0  0
  3 28  1  0  0  0  0
  3 29  1  0  0  0  0
  4  5  1  0  0  0  0
  4 30  1  0  0  0  0
  4 31  1  0  0  0  0
  5  6  1  0  0  0  0
  5 32  1  0  0  0  0
  5 33  1  0  0  0  0
  6  7  1  0  0  0  0
  6 34  1  0  0  0  0
  6 35  1  0  0  0  0
  7  8  1  0  0  0  0
  7 36  1  0  0  0  0
  7 37  1  0  0  0  0
  8  9  1  0  0  0  0
  8 38  1  0  0  0  0
  8 39  1  0  0  0  0
  9 10  1  0  0  0  0
  9 40  1  0  0  0  0
  9 41  1  0  0  0  0
 10 11  1  0  0  0  0
 10 42  1  0  0  0  0
 10 43  1  0  0  0  0
 11 12  1  0  0  0  0
 11 44  1  0  0  0  0
 11 45  1  0  0  0  0
 12 13  1  0  0  0  0
 12 46  1  0  0  0  0
 12 47  1  0  0  0  0
 13 14  1  0  0  0  0
 13 48  1  0  0  0  0
 14 15  2  0  0  0  0
 14 16  1  0  0  0  0
 16 17  1  0  0  0  0
 16 49  1  0  0  0  0
 17 18  1  0  0  0  0
 17 22  1  0  0  0  0
 17 50  1  0  0  0  0
 18 19  1  0  0  0  0
 18 51  1  0  0  0  0
 18 52  1  0  0  0  0
 19 20  1  0  0  0  0
 19 53  1  0  0  0  0
 19 54  1  0  0  0  0
 20 21  1  0  0  0  0
 20 55  1  0  0  0  0
 20 56  1  0  0  0  0
 21 22  1  0  0  0  0
 21 57  1  0  0  0  0
 21 58  1  0  0  0  0
 22 59  1  0  0  0  0
 22 60  1  0  0  0  0
M  END
