
 OpenBabel10072620033D

 55 58  0  0  0  0  0  0  0  0999 V2000
   -5.2385  -10.4974    1.5503 C   0  0  0  0  0  0  0  0  0  0  0  0
   -4.3544  -11.3760    0.9636 C   0  0  0  0  0  0  0  0  0  0  0  0
   -2.8488  -10.6376    0.6216 S   0  0  0  0  0  0  0  0  0  0  0  0
   -3.3807   -9.1270    1.2217 C   0  0  0  0  0  0  0  0  0  0  0  0
   -4.6691   -9.1993    1.7130 C   0  0  0  0  0  0  0  0  0  0  0  0
   -2.5545   -7.8744    1.2149 C   0  0  0  0  0  0  0  0  0  0  0  0
   -2.9894   -6.7375    1.7677 N   0  0  0  0  0  0  0  0  0  0  0  0
   -2.0198   -5.8183    1.4989 N   0  0  0  0  0  0  0  0  0  0  0  0
   -0.8821   -6.4463    1.0012 C   0  0  0  0  0  0  0  0  0  0  0  0
   -1.2578   -7.7306    0.6848 C   0  0  0  0  0  0  0  0  0  0  0  0
    0.4750   -5.9608    0.8540 N   0  0  0  0  0  0  0  0  0  0  0  0
    1.4618   -6.2188    2.2570 S   0  0  0  0  0  0  0  0  0  0  0  0
    2.8281   -6.3064    1.7829 O   0  0  0  0  0  0  0  0  0  0  0  0
    1.0837   -5.1653    3.1723 O   0  0  0  0  0  0  0  0  0  0  0  0
    1.0118   -7.8146    2.8911 C   0  0  0  0  0  0  0  0  0  0  0  0
    0.1901   -7.9913    4.0113 C   0  0  0  0  0  0  0  0  0  0  0  0
   -0.1103   -9.3007    4.4059 C   0  0  0  0  0  0  0  0  0  0  0  0
    0.3849  -10.4046    3.6966 C   0  0  0  0  0  0  0  0  0  0  0  0
    1.1913  -10.2174    2.5790 C   0  0  0  0  0  0  0  0  0  0  0  0
    1.5245   -8.9222    2.1951 C   0  0  0  0  0  0  0  0  0  0  0  0
    1.6954  -11.1928    1.7696 O   0  0  0  0  0  0  0  0  0  0  0  0
    1.3924  -12.5535    2.0952 C   0  0  0  0  0  0  0  0  0  0  0  0
    1.8678  -13.4878    0.9917 C   0  0  0  0  0  0  0  0  0  0  0  0
    3.1935  -13.3697    0.7630 F   0  0  0  0  0  0  0  0  0  0  0  0
    1.6305  -14.7756    1.3422 F   0  0  0  0  0  0  0  0  0  0  0  0
    1.2146  -13.2608   -0.1698 F   0  0  0  0  0  0  0  0  0  0  0  0
   -0.2917   -6.8820    4.6397 O   0  0  0  0  0  0  0  0  0  0  0  0
   -1.1430   -7.0476    5.7781 C   0  0  0  0  0  0  0  0  0  0  0  0
   -1.5488   -5.7027    6.3620 C   0  0  0  0  0  0  0  0  0  0  0  0
   -2.1698   -4.9213    5.4547 F   0  0  0  0  0  0  0  0  0  0  0  0
   -2.4184   -5.8907    7.3859 F   0  0  0  0  0  0  0  0  0  0  0  0
   -0.4907   -5.0278    6.8581 F   0  0  0  0  0  0  0  0  0  0  0  0
   -2.2729   -4.4384    1.7376 C   0  0  0  0  0  0  0  0  0  0  0  0
   -3.3059   -4.0836    2.6227 C   0  0  0  0  0  0  0  0  0  0  0  0
   -3.5870   -2.7393    2.8777 C   0  0  0  0  0  0  0  0  0  0  0  0
   -2.8494   -1.7516    2.2395 C   0  0  0  0  0  0  0  0  0  0  0  0
   -1.8520   -2.0823    1.3308 C   0  0  0  0  0  0  0  0  0  0  0  0
   -1.5661   -3.4270    1.0701 C   0  0  0  0  0  0  0  0  0  0  0  0
   -3.1214   -0.4620    2.4791 F   0  0  0  0  0  0  0  0  0  0  0  0
   -6.2484  -10.7666    1.8369 H   0  0  0  0  0  0  0  0  0  0  0  0
   -4.5213  -12.4160    0.7183 H   0  0  0  0  0  0  0  0  0  0  0  0
   -5.1920   -8.3546    2.1482 H   0  0  0  0  0  0  0  0  0  0  0  0
   -0.6455   -8.4852    0.2129 H   0  0  0  0  0  0  0  0  0  0  0  0
    0.4943   -4.9407    0.8299 H   0  0  0  0  0  0  0  0  0  0  0  0
   -0.7458   -9.5099    5.2617 H   0  0  0  0  0  0  0  0  0  0  0  0
    0.1092  -11.3947    4.0452 H   0  0  0  0  0  0  0  0  0  0  0  0
    2.1640   -8.7746    1.3243 H   0  0  0  0  0  0  0  0  0  0  0  0
    0.3105  -12.6863    2.2081 H   0  0  0  0  0  0  0  0  0  0  0  0
    1.9000  -12.8194    3.0295 H   0  0  0  0  0  0  0  0  0  0  0  0
   -0.6171   -7.6137    6.5540 H   0  0  0  0  0  0  0  0  0  0  0  0
   -2.0511   -7.5846    5.4841 H   0  0  0  0  0  0  0  0  0  0  0  0
   -3.8834   -4.8435    3.1468 H   0  0  0  0  0  0  0  0  0  0  0  0
   -4.3720   -2.4616    3.5736 H   0  0  0  0  0  0  0  0  0  0  0  0
   -1.3142   -1.2891    0.8185 H   0  0  0  0  0  0  0  0  0  0  0  0
   -0.8379   -3.6367    0.2955 H   0  0  0  0  0  0  0  0  0  0  0  0
  1  2  2  0  0  0  0
  1  5  1  0  0  0  0
  1 40  1  0  0  0  0
  2  3  1  0  0  0  0
  2 41  1  0  0  0  0
  3  4  1  0  0  0  0
  4  5  2  0  0  0  0
  4  6  1  0  0  0  0
  5 42  1  0  0  0  0
  6  7  2  0  0  0  0
  6 10  1  0  0  0  0
  7  8  1  0  0  0  0
  8  9  1  0  0  0  0
  8 33  1  0  0  0  0
  9 10  2  0  0  0  0
  9 11  1  0  0  0  0
 10 43  1  0  0  0  0
 11 12  1  0  0  0  0
 11 44  1  0  0  0  0
 12 13  2  0  0  0  0
 12 14  2  0  0  0  0
 12 15  1  0  0  0  0
 15 16  2  0  0  0  0
 15 20  1  0  0  0  0
 16 17  1  0  0  0  0
 16 27  1  0  0  0  0
 17 18  2  0  0  0  0
 17 45  1  0  0  0  0
 18 19  1  0  0  0  0
 18 46  1  0  0  0  0
 19 20  2  0  0  0  0
 19 21  1  0  0  0  0
 20 47  1  0  0  0  0
 21 22  1  0  0  0  0
 22 23  1  0  0  0  0
 22 48  1  0  0  0  0
 22 49  1  0  0  0  0
 23 24  1  0  0  0  0
 23 25  1  0  0  0  0
 23 26  1  0  0  0  0
 27 28  1  0  0  0  0
 28 29  1  0  0  0  0
 28 50  1  0  0  0  0
 28 51  1  0  0  0  0
 29 30  1  0  0  0  0
 29 31  1  0  0  0  0
 29 32  1  0  0  0  0
 33 34  2  0  0  0  0
 33 38  1  0  0  0  0
 34 35  1  0  0  0  0
 34 52  1  0  0  0  0
 35 36  2  0  0  0  0
 35 53  1  0  0  0  0
 36 37  1  0  0  0  0
 36 39  1  0  0  0  0
 37 38  2  0  0  0  0
 37 54  1  0  0  0  0
 38 55  1  0  0  0  0
M  END
