
 OpenBabel10072620093D

 41 42  0  0  1  0  0  0  0  0999 V2000
   -2.8687    0.7664   -0.1685 C   0  0  0  0  0  0  0  0  0  0  0  0
   -1.5283    0.1061    0.0070 C   0  0  0  0  0  0  0  0  0  0  0  0
   -1.3818   -1.2254   -0.1273 C   0  0  0  0  0  0  0  0  0  0  0  0
   -0.0758   -1.9504    0.0092 C   0  0  0  0  0  0  0  0  0  0  0  0
    1.0790   -1.0769    0.5076 C   0  0  0  0  0  0  0  0  0  0  0  0
    1.0270    0.3709   -0.0366 C   0  0  0  0  0  0  0  0  0  0  0  0
   -0.3549    1.0262    0.3291 C   0  0  3  0  0  0  0  0  0  0  0  0
   -0.4507    1.4375    1.7865 C   0  0  0  0  0  0  0  0  0  0  0  0
   -0.6113    2.7053    2.2052 C   0  0  0  0  0  0  0  0  0  0  0  0
   -0.6969    3.1022    3.6192 C   0  0  0  0  0  0  0  0  0  0  0  0
   -0.5601    2.1325    4.5443 N   0  0  0  0  0  0  0  0  0  0  0  0
   -0.6325    2.5038    5.8308 C   0  0  0  0  0  0  0  0  0  0  0  0
   -0.8282    3.7637    6.2518 N   0  0  0  0  0  0  0  0  0  0  0  0
   -0.9592    4.6994    5.2975 C   0  0  0  0  0  0  0  0  0  0  0  0
   -0.9017    4.4236    3.9534 C   0  0  0  0  0  0  0  0  0  0  0  0
   -0.4604    1.2694    7.0973 S   0  0  0  0  0  0  0  0  0  0  0  0
   -0.2080   -0.2053    6.0801 C   0  0  0  0  0  0  0  0  0  0  0  0
    1.2106    0.3608   -1.5748 C   0  0  0  0  0  0  0  0  0  0  0  0
    2.2116    1.1709    0.5475 C   0  0  0  0  0  0  0  0  0  0  0  0
   -3.6492    0.0459   -0.4350 H   0  0  0  0  0  0  0  0  0  0  0  0
   -2.8209    1.5125   -0.9682 H   0  0  0  0  0  0  0  0  0  0  0  0
   -3.1804    1.2640    0.7550 H   0  0  0  0  0  0  0  0  0  0  0  0
   -2.2444   -1.8438   -0.3662 H   0  0  0  0  0  0  0  0  0  0  0  0
    0.1823   -2.3742   -0.9689 H   0  0  0  0  0  0  0  0  0  0  0  0
   -0.2023   -2.7981    0.6926 H   0  0  0  0  0  0  0  0  0  0  0  0
    2.0298   -1.5554    0.2395 H   0  0  0  0  0  0  0  0  0  0  0  0
    1.0541   -1.0589    1.6053 H   0  0  0  0  0  0  0  0  0  0  0  0
   -0.4558    1.9256   -0.2959 H   0  0  0  0  0  0  0  0  0  0  0  0
   -0.3883    0.6332    2.5180 H   0  0  0  0  0  0  0  0  0  0  0  0
   -0.6828    3.5060    1.4750 H   0  0  0  0  0  0  0  0  0  0  0  0
   -1.1164    5.7114    5.6590 H   0  0  0  0  0  0  0  0  0  0  0  0
   -1.0123    5.2056    3.2151 H   0  0  0  0  0  0  0  0  0  0  0  0
   -0.0784   -1.0695    6.7376 H   0  0  0  0  0  0  0  0  0  0  0  0
    0.6913   -0.1068    5.4653 H   0  0  0  0  0  0  0  0  0  0  0  0
   -1.0748   -0.3910    5.4394 H   0  0  0  0  0  0  0  0  0  0  0  0
    0.4001   -0.1578   -2.0955 H   0  0  0  0  0  0  0  0  0  0  0  0
    2.1481   -0.1344   -1.8536 H   0  0  0  0  0  0  0  0  0  0  0  0
    1.2472    1.3831   -1.9690 H   0  0  0  0  0  0  0  0  0  0  0  0
    2.2294    1.1389    1.6420 H   0  0  0  0  0  0  0  0  0  0  0  0
    2.1674    2.2215    0.2392 H   0  0  0  0  0  0  0  0  0  0  0  0
    3.1688    0.7637    0.2018 H   0  0  0  0  0  0  0  0  0  0  0  0
  1  2  1  0  0  0  0
  1 20  1  0  0  0  0
  1 21  1  0  0  0  0
  1 22  1  0  0  0  0
  2  3  2  0  0  0  0
  2  7  1  0  0  0  0
  3  4  1  0  0  0  0
  3 23  1  0  0  0  0
  4  5  1  0  0  0  0
  4 24  1  0  0  0  0
  4 25  1  0  0  0  0
  5  6  1  0  0  0  0
  5 26  1  0  0  0  0
  5 27  1  0  0  0  0
  6  7  1  0  0  0  0
  6 18  1  0  0  0  0
  6 19  1  0  0  0  0
  7  8  1  0  0  0  0
  7 28  1  0  0  0  0
  8  9  2  0  0  0  0
  8 29  1  0  0  0  0
  9 10  1  0  0  0  0
  9 30  1  0  0  0  0
 10 11  2  0  0  0  0
 10 15  1  0  0  0  0
 11 12  1  0  0  0  0
 12 13  2  0  0  0  0
 12 16  1  0  0  0  0
 13 14  1  0  0  0  0
 14 15  2  0  0  0  0
 14 31  1  0  0  0  0
 15 32  1  0  0  0  0
 16 17  1  0  0  0  0
 17 33  1  0  0  0  0
 17 34  1  0  0  0  0
 17 35  1  0  0  0  0
 18 36  1  0  0  0  0
 18 37  1  0  0  0  0
 18 38  1  0  0  0  0
 19 39  1  0  0  0  0
 19 40  1  0  0  0  0
 19 41  1  0  0  0  0
M  END
