
 OpenBabel10072619523D

 44 48  0  0  0  0  0  0  0  0999 V2000
    2.4032   -0.0828   -0.2062 C   0  0  0  0  0  0  0  0  0  0  0  0
    0.9061   -0.0105   -0.1530 C   0  0  0  0  0  0  0  0  0  0  0  0
    0.1482   -0.1363   -1.3208 C   0  0  0  0  0  0  0  0  0  0  0  0
   -1.2482   -0.0950   -1.2662 C   0  0  0  0  0  0  0  0  0  0  0  0
   -1.9191    0.0492   -0.0434 C   0  0  0  0  0  0  0  0  0  0  0  0
   -1.1528    0.1743    1.1249 C   0  0  0  0  0  0  0  0  0  0  0  0
    0.2451    0.1360    1.0709 C   0  0  0  0  0  0  0  0  0  0  0  0
   -3.4004    0.0976   -0.0237 C   0  0  0  0  0  0  0  0  0  0  0  0
   -4.0862   -0.5657    0.9314 C   0  0  0  0  0  0  0  0  0  0  0  0
   -5.4676   -0.5180    0.9090 N   0  0  0  0  0  0  0  0  0  0  0  0
   -6.4247   -1.0750    1.7259 C   0  0  0  0  0  0  0  0  0  0  0  0
   -6.3578   -1.8798    2.8707 C   0  0  0  0  0  0  0  0  0  0  0  0
   -7.5733   -2.2676    3.4467 C   0  0  0  0  0  0  0  0  0  0  0  0
   -8.7946   -1.8687    2.9007 C   0  0  0  0  0  0  0  0  0  0  0  0
   -8.8396   -1.0629    1.7563 C   0  0  0  0  0  0  0  0  0  0  0  0
   -7.6332   -0.6605    1.1630 C   0  0  0  0  0  0  0  0  0  0  0  0
   -7.4310    0.1217    0.0495 N   0  0  0  0  0  0  0  0  0  0  0  0
   -6.1223    0.1839   -0.0705 C   0  0  0  0  0  0  0  0  0  0  0  0
   -5.3331    0.8664   -1.0722 C   0  0  0  0  0  0  0  0  0  0  0  0
   -4.0247    0.8128   -1.0391 N   0  0  0  0  0  0  0  0  0  0  0  0
   -6.0561    1.6176   -2.1349 C   0  0  0  0  0  0  0  0  0  0  0  0
   -5.3787    2.2609   -3.0965 C   0  0  0  0  0  0  0  0  0  0  0  0
   -6.0603    2.9637   -4.1262 C   0  0  0  0  0  0  0  0  0  0  0  0
   -5.5202    3.6694   -5.1962 C   0  0  0  0  0  0  0  0  0  0  0  0
   -6.5904    4.1913   -5.9606 C   0  0  0  0  0  0  0  0  0  0  0  0
   -7.7349    3.7838   -5.3263 C   0  0  0  0  0  0  0  0  0  0  0  0
   -7.4319    3.0514   -4.2283 O   0  0  0  0  0  0  0  0  0  0  0  0
    2.7788    0.2664   -1.1741 H   0  0  0  0  0  0  0  0  0  0  0  0
    2.7322   -1.1150   -0.0521 H   0  0  0  0  0  0  0  0  0  0  0  0
    2.8509    0.5529    0.5650 H   0  0  0  0  0  0  0  0  0  0  0  0
    0.6369   -0.2597   -2.2843 H   0  0  0  0  0  0  0  0  0  0  0  0
   -1.8165   -0.1799   -2.1909 H   0  0  0  0  0  0  0  0  0  0  0  0
   -1.6311    0.3200    2.0900 H   0  0  0  0  0  0  0  0  0  0  0  0
    0.8144    0.2333    1.9925 H   0  0  0  0  0  0  0  0  0  0  0  0
   -3.6245   -1.1501    1.7151 H   0  0  0  0  0  0  0  0  0  0  0  0
   -5.4114   -2.1930    3.2982 H   0  0  0  0  0  0  0  0  0  0  0  0
   -7.5653   -2.8925    4.3379 H   0  0  0  0  0  0  0  0  0  0  0  0
   -9.7245   -2.1861    3.3677 H   0  0  0  0  0  0  0  0  0  0  0  0
   -9.7861   -0.7516    1.3283 H   0  0  0  0  0  0  0  0  0  0  0  0
   -7.1408    1.6086   -2.0915 H   0  0  0  0  0  0  0  0  0  0  0  0
   -4.2922    2.2549   -3.1156 H   0  0  0  0  0  0  0  0  0  0  0  0
   -4.4640    3.7876   -5.3967 H   0  0  0  0  0  0  0  0  0  0  0  0
   -6.5330    4.7873   -6.8601 H   0  0  0  0  0  0  0  0  0  0  0  0
   -8.7895    3.9222   -5.5182 H   0  0  0  0  0  0  0  0  0  0  0  0
  1  2  1  0  0  0  0
  1 28  1  0  0  0  0
  1 29  1  0  0  0  0
  1 30  1  0  0  0  0
  2  3  2  0  0  0  0
  2  7  1  0  0  0  0
  3  4  1  0  0  0  0
  3 31  1  0  0  0  0
  4  5  2  0  0  0  0
  4 32  1  0  0  0  0
  5  6  1  0  0  0  0
  5  8  1  0  0  0  0
  6  7  2  0  0  0  0
  6 33  1  0  0  0  0
  7 34  1  0  0  0  0
  8  9  2  0  0  0  0
  8 20  1  0  0  0  0
  9 10  1  0  0  0  0
  9 35  1  0  0  0  0
 10 11  1  0  0  0  0
 10 18  1  0  0  0  0
 11 12  2  0  0  0  0
 11 16  1  0  0  0  0
 12 13  1  0  0  0  0
 12 36  1  0  0  0  0
 13 14  2  0  0  0  0
 13 37  1  0  0  0  0
 14 15  1  0  0  0  0
 14 38  1  0  0  0  0
 15 16  2  0  0  0  0
 15 39  1  0  0  0  0
 16 17  1  0  0  0  0
 17 18  2  0  0  0  0
 18 19  1  0  0  0  0
 19 20  2  0  0  0  0
 19 21  1  0  0  0  0
 21 22  2  0  0  0  0
 21 40  1  0  0  0  0
 22 23  1  0  0  0  0
 22 41  1  0  0  0  0
 23 24  2  0  0  0  0
 23 27  1  0  0  0  0
 24 25  1  0  0  0  0
 24 42  1  0  0  0  0
 25 26  2  0  0  0  0
 25 43  1  0  0  0  0
 26 27  1  0  0  0  0
 26 44  1  0  0  0  0
M  END
