
 OpenBabel10072620203D

 62 64  0  0  0  0  0  0  0  0999 V2000
    4.4829   -5.1949    0.9848 C   0  0  0  0  0  0  0  0  0  0  0  0
    3.1268   -5.3019    0.2503 C   0  0  0  0  0  0  0  0  0  0  0  0
    2.7062   -6.7878    0.2924 C   0  0  0  0  0  0  0  0  0  0  0  0
    2.1055   -4.4644    1.0473 C   0  0  0  0  0  0  0  0  0  0  0  0
    3.1671   -4.8098   -1.2070 C   0  0  0  0  0  0  0  0  0  0  0  0
    4.3099   -4.2283   -1.7807 C   0  0  0  0  0  0  0  0  0  0  0  0
    4.3255   -3.7942   -3.1156 C   0  0  0  0  0  0  0  0  0  0  0  0
    3.1976   -3.9416   -3.9159 C   0  0  0  0  0  0  0  0  0  0  0  0
    2.0482   -4.4999   -3.3613 C   0  0  0  0  0  0  0  0  0  0  0  0
    2.0306   -4.9259   -2.0281 C   0  0  0  0  0  0  0  0  0  0  0  0
    3.0886   -3.5848   -5.2293 O   0  0  0  0  0  0  0  0  0  0  0  0
    4.2783   -3.1629   -5.8978 C   0  0  0  0  0  0  0  0  0  0  0  0
    3.9948   -3.1472   -7.3980 C   0  0  0  0  0  0  0  0  0  0  0  0
    5.1553   -2.6808   -8.0950 O   0  0  0  0  0  0  0  0  0  0  0  0
    5.4905   -3.4265   -9.2016 C   0  0  0  0  0  0  0  0  0  0  0  0
    4.5722   -3.7656  -10.2149 C   0  0  0  0  0  0  0  0  0  0  0  0
    5.0077   -4.5385  -11.2964 C   0  0  0  0  0  0  0  0  0  0  0  0
    6.3441   -4.9482  -11.3846 C   0  0  0  0  0  0  0  0  0  0  0  0
    7.2665   -4.5742  -10.4106 C   0  0  0  0  0  0  0  0  0  0  0  0
    6.8369   -3.8115   -9.3243 C   0  0  0  0  0  0  0  0  0  0  0  0
    8.0049   -3.3949   -8.1169 Cl  0  0  0  0  0  0  0  0  0  0  0  0
    6.7890   -5.8002  -12.5053 C   0  0  0  0  0  0  0  0  0  0  0  0
    5.9318   -6.3487  -13.3026 N   0  0  0  0  0  0  0  0  0  0  0  0
    6.4443   -7.1370  -14.2882 N   0  0  0  0  0  0  0  0  0  0  0  0
    5.5753   -7.8092  -15.1383 C   0  0  0  0  0  0  0  0  0  0  0  0
    4.3512   -7.7309  -15.1061 O   0  0  0  0  0  0  0  0  0  0  0  0
    6.2145   -8.6647  -16.1768 C   0  0  0  0  0  0  0  0  0  0  0  0
    7.4725   -9.2446  -16.0043 C   0  0  0  0  0  0  0  0  0  0  0  0
    7.9760  -10.0201  -17.0349 C   0  0  0  0  0  0  0  0  0  0  0  0
    7.3180  -10.2519  -18.1897 N   0  0  0  0  0  0  0  0  0  0  0  0
    6.0926   -9.7007  -18.3209 C   0  0  0  0  0  0  0  0  0  0  0  0
    5.5022   -8.9107  -17.3525 C   0  0  0  0  0  0  0  0  0  0  0  0
    3.2942   -3.2823  -10.0932 O   0  0  0  0  0  0  0  0  0  0  0  0
    2.3043   -3.8209  -10.9642 C   0  0  0  0  0  0  0  0  0  0  0  0
    4.4031   -5.5662    2.0138 H   0  0  0  0  0  0  0  0  0  0  0  0
    4.8293   -4.1567    1.0472 H   0  0  0  0  0  0  0  0  0  0  0  0
    5.2598   -5.7861    0.4857 H   0  0  0  0  0  0  0  0  0  0  0  0
    2.7505   -7.1831    1.3140 H   0  0  0  0  0  0  0  0  0  0  0  0
    3.3645   -7.4029   -0.3328 H   0  0  0  0  0  0  0  0  0  0  0  0
    1.6804   -6.9377   -0.0617 H   0  0  0  0  0  0  0  0  0  0  0  0
    2.0817   -4.7694    2.0998 H   0  0  0  0  0  0  0  0  0  0  0  0
    1.0878   -4.5738    0.6567 H   0  0  0  0  0  0  0  0  0  0  0  0
    2.3579   -3.3980    1.0154 H   0  0  0  0  0  0  0  0  0  0  0  0
    5.2235   -4.0926   -1.2083 H   0  0  0  0  0  0  0  0  0  0  0  0
    5.2375   -3.3437   -3.4932 H   0  0  0  0  0  0  0  0  0  0  0  0
    1.1539   -4.6100   -3.9707 H   0  0  0  0  0  0  0  0  0  0  0  0
    1.1081   -5.3538   -1.6420 H   0  0  0  0  0  0  0  0  0  0  0  0
    5.1116   -3.8524   -5.7107 H   0  0  0  0  0  0  0  0  0  0  0  0
    4.5671   -2.1611   -5.5584 H   0  0  0  0  0  0  0  0  0  0  0  0
    3.1580   -2.4703   -7.6077 H   0  0  0  0  0  0  0  0  0  0  0  0
    3.6926   -4.1602   -7.6958 H   0  0  0  0  0  0  0  0  0  0  0  0
    4.3283   -4.8282  -12.0938 H   0  0  0  0  0  0  0  0  0  0  0  0
    8.3051   -4.8853  -10.4768 H   0  0  0  0  0  0  0  0  0  0  0  0
    7.8759   -5.9665  -12.6122 H   0  0  0  0  0  0  0  0  0  0  0  0
    7.4455   -7.1562  -14.4309 H   0  0  0  0  0  0  0  0  0  0  0  0
    8.0479   -9.1375  -15.0937 H   0  0  0  0  0  0  0  0  0  0  0  0
    8.9491  -10.4980  -16.9564 H   0  0  0  0  0  0  0  0  0  0  0  0
    5.5813   -9.9190  -19.2547 H   0  0  0  0  0  0  0  0  0  0  0  0
    4.5116   -8.4951  -17.5086 H   0  0  0  0  0  0  0  0  0  0  0  0
    1.3331   -3.4260  -10.6507 H   0  0  0  0  0  0  0  0  0  0  0  0
    2.2582   -4.9133  -10.8900 H   0  0  0  0  0  0  0  0  0  0  0  0
    2.4740   -3.4996  -11.9969 H   0  0  0  0  0  0  0  0  0  0  0  0
  1  2  1  0  0  0  0
  1 35  1  0  0  0  0
  1 36  1  0  0  0  0
  1 37  1  0  0  0  0
  2  3  1  0  0  0  0
  2  4  1  0  0  0  0
  2  5  1  0  0  0  0
  3 38  1  0  0  0  0
  3 39  1  0  0  0  0
  3 40  1  0  0  0  0
  4 41  1  0  0  0  0
  4 42  1  0  0  0  0
  4 43  1  0  0  0  0
  5  6  2  0  0  0  0
  5 10  1  0  0  0  0
  6  7  1  0  0  0  0
  6 44  1  0  0  0  0
  7  8  2  0  0  0  0
  7 45  1  0  0  0  0
  8  9  1  0  0  0  0
  8 11  1  0  0  0  0
  9 10  2  0  0  0  0
  9 46  1  0  0  0  0
 10 47  1  0  0  0  0
 11 12  1  0  0  0  0
 12 13  1  0  0  0  0
 12 48  1  0  0  0  0
 12 49  1  0  0  0  0
 13 14  1  0  0  0  0
 13 50  1  0  0  0  0
 13 51  1  0  0  0  0
 14 15  1  0  0  0  0
 15 16  2  0  0  0  0
 15 20  1  0  0  0  0
 16 17  1  0  0  0  0
 16 33  1  0  0  0  0
 17 18  2  0  0  0  0
 17 52  1  0  0  0  0
 18 19  1  0  0  0  0
 18 22  1  0  0  0  0
 19 20  2  0  0  0  0
 19 53  1  0  0  0  0
 20 21  1  0  0  0  0
 22 23  2  0  0  0  0
 22 54  1  0  0  0  0
 23 24  1  0  0  0  0
 24 25  1  0  0  0  0
 24 55  1  0  0  0  0
 25 26  2  0  0  0  0
 25 27  1  0  0  0  0
 27 28  2  0  0  0  0
 27 32  1  0  0  0  0
 28 29  1  0  0  0  0
 28 56  1  0  0  0  0
 29 30  2  0  0  0  0
 29 57  1  0  0  0  0
 30 31  1  0  0  0  0
 31 32  2  0  0  0  0
 31 58  1  0  0  0  0
 32 59  1  0  0  0  0
 33 34  1  0  0  0  0
 34 60  1  0  0  0  0
 34 61  1  0  0  0  0
 34 62  1  0  0  0  0
M  END
