
 OpenBabel10072620223D

 43 45  0  0  0  0  0  0  0  0999 V2000
    1.6283    0.5104   -0.3096 C   0  0  0  0  0  0  0  0  0  0  0  0
    2.7707   -0.1855   -0.7912 O   0  0  0  0  0  0  0  0  0  0  0  0
    3.3907   -1.0343    0.0837 C   0  0  0  0  0  0  0  0  0  0  0  0
    3.0702   -1.2067    1.4301 C   0  0  0  0  0  0  0  0  0  0  0  0
    3.7922   -2.1127    2.2170 C   0  0  0  0  0  0  0  0  0  0  0  0
    4.8450   -2.8547    1.6669 C   0  0  0  0  0  0  0  0  0  0  0  0
    5.1577   -2.6818    0.3141 C   0  0  0  0  0  0  0  0  0  0  0  0
    4.4379   -1.7750   -0.4665 C   0  0  0  0  0  0  0  0  0  0  0  0
    5.6153   -3.8468    2.5015 C   0  0  0  0  0  0  0  0  0  0  0  0
    4.8513   -5.1604    2.6813 C   0  0  0  0  0  0  0  0  0  0  0  0
    5.7251   -6.1521    3.3236 N   0  0  0  0  0  0  0  0  0  0  0  0
    5.1753   -7.7377    3.4281 S   0  0  0  0  0  0  0  0  0  0  0  0
    6.0403   -8.4003    4.3789 O   0  0  0  0  0  0  0  0  0  0  0  0
    3.7413   -7.7008    3.6023 O   0  0  0  0  0  0  0  0  0  0  0  0
    5.5543   -8.3782    1.8209 C   0  0  0  0  0  0  0  0  0  0  0  0
    4.5172   -8.6570    0.9277 C   0  0  0  0  0  0  0  0  0  0  0  0
    4.8235   -9.1803   -0.3250 C   0  0  0  0  0  0  0  0  0  0  0  0
    6.1567   -9.4045   -0.6905 C   0  0  0  0  0  0  0  0  0  0  0  0
    7.1855   -9.1527    0.2172 C   0  0  0  0  0  0  0  0  0  0  0  0
    6.8866   -8.6374    1.4796 C   0  0  0  0  0  0  0  0  0  0  0  0
    6.5249   -9.8812   -1.9227 O   0  0  0  0  0  0  0  0  0  0  0  0
    5.4516   -9.7744   -2.8659 C   0  0  0  0  0  0  0  0  0  0  0  0
    4.1515  -10.2710   -2.2553 C   0  0  0  0  0  0  0  0  0  0  0  0
    3.7632   -9.4422   -1.1537 O   0  0  0  0  0  0  0  0  0  0  0  0
    1.2176    1.0938   -1.1394 H   0  0  0  0  0  0  0  0  0  0  0  0
    1.9011    1.2097    0.4873 H   0  0  0  0  0  0  0  0  0  0  0  0
    0.8520   -0.1867    0.0228 H   0  0  0  0  0  0  0  0  0  0  0  0
    2.2676   -0.6495    1.9013 H   0  0  0  0  0  0  0  0  0  0  0  0
    3.5231   -2.2310    3.2647 H   0  0  0  0  0  0  0  0  0  0  0  0
    5.9640   -3.2493   -0.1453 H   0  0  0  0  0  0  0  0  0  0  0  0
    4.6943   -1.6464   -1.5153 H   0  0  0  0  0  0  0  0  0  0  0  0
    5.8428   -3.4023    3.4793 H   0  0  0  0  0  0  0  0  0  0  0  0
    6.5901   -4.0415    2.0354 H   0  0  0  0  0  0  0  0  0  0  0  0
    4.5187   -5.5345    1.7071 H   0  0  0  0  0  0  0  0  0  0  0  0
    3.9688   -4.9912    3.3083 H   0  0  0  0  0  0  0  0  0  0  0  0
    6.2396   -5.8782    4.1599 H   0  0  0  0  0  0  0  0  0  0  0  0
    3.4792   -8.4832    1.1991 H   0  0  0  0  0  0  0  0  0  0  0  0
    8.2175   -9.3493   -0.0616 H   0  0  0  0  0  0  0  0  0  0  0  0
    7.6875   -8.4385    2.1882 H   0  0  0  0  0  0  0  0  0  0  0  0
    5.3716   -8.7275   -3.1840 H   0  0  0  0  0  0  0  0  0  0  0  0
    5.7163  -10.3777   -3.7402 H   0  0  0  0  0  0  0  0  0  0  0  0
    4.2431  -11.3050   -1.9001 H   0  0  0  0  0  0  0  0  0  0  0  0
    3.3463  -10.2343   -2.9955 H   0  0  0  0  0  0  0  0  0  0  0  0
  1  2  1  0  0  0  0
  1 25  1  0  0  0  0
  1 26  1  0  0  0  0
  1 27  1  0  0  0  0
  2  3  1  0  0  0  0
  3  4  2  0  0  0  0
  3  8  1  0  0  0  0
  4  5  1  0  0  0  0
  4 28  1  0  0  0  0
  5  6  2  0  0  0  0
  5 29  1  0  0  0  0
  6  7  1  0  0  0  0
  6  9  1  0  0  0  0
  7  8  2  0  0  0  0
  7 30  1  0  0  0  0
  8 31  1  0  0  0  0
  9 10  1  0  0  0  0
  9 32  1  0  0  0  0
  9 33  1  0  0  0  0
 10 11  1  0  0  0  0
 10 34  1  0  0  0  0
 10 35  1  0  0  0  0
 11 12  1  0  0  0  0
 11 36  1  0  0  0  0
 12 13  2  0  0  0  0
 12 14  2  0  0  0  0
 12 15  1  0  0  0  0
 15 16  2  0  0  0  0
 15 20  1  0  0  0  0
 16 17  1  0  0  0  0
 16 37  1  0  0  0  0
 17 18  2  0  0  0  0
 17 24  1  0  0  0  0
 18 19  1  0  0  0  0
 18 21  1  0  0  0  0
 19 20  2  0  0  0  0
 19 38  1  0  0  0  0
 20 39  1  0  0  0  0
 21 22  1  0  0  0  0
 22 23  1  0  0  0  0
 22 40  1  0  0  0  0
 22 41  1  0  0  0  0
 23 24  1  0  0  0  0
 23 42  1  0  0  0  0
 23 43  1  0  0  0  0
M  END
