
 OpenBabel10072615203D

 21 21  0  0  1  0  0  0  0  0999 V2000
    1.0815   -0.2452   -0.2705 C   0  0  0  0  0  0  0  0  0  0  0  0
    2.2300   -0.0287    0.3875 C   0  0  0  0  0  0  0  0  0  0  0  0
    3.1469   -1.0427    0.9998 C   0  0  3  0  0  0  0  0  0  0  0  0
    4.4647   -1.2112    0.2549 C   0  0  0  0  0  0  0  0  0  0  0  0
    4.9002   -2.6341    0.6288 C   0  0  3  0  0  0  0  0  0  0  0  0
    3.5773   -3.3227    0.8588 C   0  0  0  0  0  0  0  0  0  0  0  0
    3.3951   -4.5244    0.9717 O   0  0  0  0  0  0  0  0  0  0  0  0
    2.5964   -2.3621    0.9823 N   0  0  0  0  0  0  0  0  0  0  0  0
    5.7743   -3.2802   -0.4180 C   0  0  0  0  0  0  0  0  0  0  0  0
    6.3735   -2.6532   -1.2861 O   0  0  0  0  0  0  0  0  0  0  0  0
    5.9745   -4.6236   -0.2786 N   0  0  0  0  0  0  0  0  0  0  0  0
    0.5102    0.5871   -0.6719 H   0  0  0  0  0  0  0  0  0  0  0  0
    0.6872   -1.2410   -0.4455 H   0  0  0  0  0  0  0  0  0  0  0  0
    2.5557    1.0053    0.5010 H   0  0  0  0  0  0  0  0  0  0  0  0
    3.3274   -0.7846    2.0504 H   0  0  0  0  0  0  0  0  0  0  0  0
    5.2064   -0.4613    0.5501 H   0  0  0  0  0  0  0  0  0  0  0  0
    4.3195   -1.1194   -0.8298 H   0  0  0  0  0  0  0  0  0  0  0  0
    5.4444   -2.6211    1.5809 H   0  0  0  0  0  0  0  0  0  0  0  0
    1.6661   -2.6103    1.2937 H   0  0  0  0  0  0  0  0  0  0  0  0
    5.2761   -5.1867    0.2038 H   0  0  0  0  0  0  0  0  0  0  0  0
    6.4965   -5.0787   -1.0164 H   0  0  0  0  0  0  0  0  0  0  0  0
  1  2  2  0  0  0  0
  1 12  1  0  0  0  0
  1 13  1  0  0  0  0
  2  3  1  0  0  0  0
  2 14  1  0  0  0  0
  3  4  1  0  0  0  0
  3  8  1  0  0  0  0
  3 15  1  0  0  0  0
  4  5  1  0  0  0  0
  4 16  1  0  0  0  0
  4 17  1  0  0  0  0
  5  6  1  0  0  0  0
  5  9  1  0  0  0  0
  5 18  1  0  0  0  0
  6  7  2  0  0  0  0
  6  8  1  0  0  0  0
  8 19  1  0  0  0  0
  9 10  2  0  0  0  0
  9 11  1  0  0  0  0
 11 20  1  0  0  0  0
 11 21  1  0  0  0  0
M  END
