
 OpenBabel10072616333D

 41 43  0  0  0  0  0  0  0  0999 V2000
    3.9050    2.5725   -0.6590 C   0  0  0  0  0  0  0  0  0  0  0  0
    2.4699    2.6862   -0.1608 C   0  0  0  0  0  0  0  0  0  0  0  0
    2.2871    1.9524    1.1665 C   0  0  0  0  0  0  0  0  0  0  0  0
    2.8289    0.5920    1.1683 N   0  0  0  0  0  0  0  0  0  0  0  0
    4.1267    0.3791    0.5226 C   0  0  0  0  0  0  0  0  0  0  0  0
    4.2667    1.1022   -0.8094 C   0  0  0  0  0  0  0  0  0  0  0  0
    2.3365   -0.2614    2.1631 C   0  0  0  0  0  0  0  0  0  0  0  0
    1.3121   -0.0348    2.8083 O   0  0  0  0  0  0  0  0  0  0  0  0
    3.0380   -1.5783    2.3525 C   0  0  0  0  0  0  0  0  0  0  0  0
    2.3244   -2.6372    1.9258 C   0  0  0  0  0  0  0  0  0  0  0  0
    2.7817   -3.9783    2.0418 C   0  0  0  0  0  0  0  0  0  0  0  0
    2.0744   -5.1579    1.8376 C   0  0  0  0  0  0  0  0  0  0  0  0
    2.9556   -6.2397    2.0683 C   0  0  0  0  0  0  0  0  0  0  0  0
    4.1537   -5.6790    2.4256 C   0  0  0  0  0  0  0  0  0  0  0  0
    4.0647   -4.3290    2.4069 O   0  0  0  0  0  0  0  0  0  0  0  0
    4.2937   -1.6751    2.9207 N   0  0  0  0  0  0  0  0  0  0  0  0
    4.9681   -0.6924    3.6150 C   0  0  0  0  0  0  0  0  0  0  0  0
    4.5106    0.4222    3.8505 O   0  0  0  0  0  0  0  0  0  0  0  0
    6.2954   -1.0800    4.0583 C   0  0  0  0  0  0  0  0  0  0  0  0
    7.1722   -0.4224    4.9009 C   0  0  0  0  0  0  0  0  0  0  0  0
    8.3746   -1.1696    4.9001 C   0  0  0  0  0  0  0  0  0  0  0  0
    8.1559   -2.2539    4.0819 C   0  0  0  0  0  0  0  0  0  0  0  0
    6.8859   -2.2244    3.5835 O   0  0  0  0  0  0  0  0  0  0  0  0
    9.4297   -3.5576    3.6611 Br  0  0  0  0  0  0  0  0  0  0  0  0
    4.5892    3.0581    0.0495 H   0  0  0  0  0  0  0  0  0  0  0  0
    4.0124    3.0805   -1.6226 H   0  0  0  0  0  0  0  0  0  0  0  0
    1.7918    2.2539   -0.9090 H   0  0  0  0  0  0  0  0  0  0  0  0
    2.1917    3.7413   -0.0499 H   0  0  0  0  0  0  0  0  0  0  0  0
    1.2172    1.9180    1.4029 H   0  0  0  0  0  0  0  0  0  0  0  0
    2.7782    2.5025    1.9788 H   0  0  0  0  0  0  0  0  0  0  0  0
    4.2818   -0.6888    0.3501 H   0  0  0  0  0  0  0  0  0  0  0  0
    4.9068    0.7193    1.2111 H   0  0  0  0  0  0  0  0  0  0  0  0
    3.6032    0.6317   -1.5472 H   0  0  0  0  0  0  0  0  0  0  0  0
    5.2939    1.0018   -1.1796 H   0  0  0  0  0  0  0  0  0  0  0  0
    1.3313   -2.4792    1.5103 H   0  0  0  0  0  0  0  0  0  0  0  0
    1.0316   -5.2200    1.5575 H   0  0  0  0  0  0  0  0  0  0  0  0
    2.7405   -7.2962    1.9892 H   0  0  0  0  0  0  0  0  0  0  0  0
    5.1173   -6.0782    2.7064 H   0  0  0  0  0  0  0  0  0  0  0  0
    4.7199   -2.6018    2.9169 H   0  0  0  0  0  0  0  0  0  0  0  0
    6.9506    0.5076    5.4113 H   0  0  0  0  0  0  0  0  0  0  0  0
    9.2954   -0.9312    5.4162 H   0  0  0  0  0  0  0  0  0  0  0  0
  1  2  1  0  0  0  0
  1  6  1  0  0  0  0
  1 25  1  0  0  0  0
  1 26  1  0  0  0  0
  2  3  1  0  0  0  0
  2 27  1  0  0  0  0
  2 28  1  0  0  0  0
  3  4  1  0  0  0  0
  3 29  1  0  0  0  0
  3 30  1  0  0  0  0
  4  5  1  0  0  0  0
  4  7  1  0  0  0  0
  5  6  1  0  0  0  0
  5 31  1  0  0  0  0
  5 32  1  0  0  0  0
  6 33  1  0  0  0  0
  6 34  1  0  0  0  0
  7  8  2  0  0  0  0
  7  9  1  0  0  0  0
  9 10  2  0  0  0  0
  9 16  1  0  0  0  0
 10 11  1  0  0  0  0
 10 35  1  0  0  0  0
 11 12  2  0  0  0  0
 11 15  1  0  0  0  0
 12 13  1  0  0  0  0
 12 36  1  0  0  0  0
 13 14  2  0  0  0  0
 13 37  1  0  0  0  0
 14 15  1  0  0  0  0
 14 38  1  0  0  0  0
 16 17  1  0  0  0  0
 16 39  1  0  0  0  0
 17 18  2  0  0  0  0
 17 19  1  0  0  0  0
 19 20  2  0  0  0  0
 19 23  1  0  0  0  0
 20 21  1  0  0  0  0
 20 40  1  0  0  0  0
 21 22  2  0  0  0  0
 21 41  1  0  0  0  0
 22 23  1  0  0  0  0
 22 24  1  0  0  0  0
M  END
