
 OpenBabel10072620193D

 53 55  0  0  1  0  0  0  0  0999 V2000
    3.4025   -3.6419   -0.8687 C   0  0  0  0  0  0  0  0  0  0  0  0
    2.3513   -3.4121    0.1989 C   0  0  0  0  0  0  0  0  0  0  0  0
    2.9866   -3.2567    1.4771 O   0  0  0  0  0  0  0  0  0  0  0  0
    3.2475   -1.9869    1.8768 C   0  0  0  0  0  0  0  0  0  0  0  0
    2.9994   -0.9744    1.2380 O   0  0  0  0  0  0  0  0  0  0  0  0
    3.8664   -1.9919    3.2242 C   0  0  0  0  0  0  0  0  0  0  0  0
    3.8228   -0.8428    3.9248 C   0  0  0  0  0  0  0  0  0  0  0  0
    4.3558   -0.6390    5.2691 C   0  0  0  0  0  0  0  0  0  0  0  0
    5.2944    0.2922    5.5520 C   0  0  0  0  0  0  0  0  0  0  0  0
    5.7778    0.4778    6.8208 N   0  0  0  0  0  0  0  0  0  0  0  0
    5.3487   -0.2663    7.7908 C   0  0  0  0  0  0  0  0  0  0  0  0
    5.9242   -0.0872    9.1712 C   0  0  0  0  0  0  0  0  0  0  0  0
    5.4646   -0.8540   10.1728 C   0  0  0  0  0  0  0  0  0  0  0  0
    4.4312   -1.8263    9.9473 C   0  0  0  0  0  0  0  0  0  0  0  0
    3.9270   -1.9885    8.7200 C   0  0  0  0  0  0  0  0  0  0  0  0
    4.3718   -1.2368    7.6396 N   0  0  0  0  0  0  0  0  0  0  0  0
    3.7898   -1.4316    6.4003 C   0  0  0  0  0  0  0  0  0  0  0  0
    2.8402   -2.1914    6.1904 O   0  0  0  0  0  0  0  0  0  0  0  0
    6.9995    0.9386    9.3460 C   0  0  0  0  0  0  0  0  0  0  0  0
    5.8090    1.0903    4.5123 N   0  0  0  0  0  0  0  0  0  0  0  0
    5.8935    2.5540    4.7639 C   0  0  0  0  0  0  0  0  0  0  0  0
    6.1721    3.2950    3.4409 C   0  0  3  0  0  0  0  0  0  0  0  0
    7.4070    2.8417    2.8544 O   0  0  0  0  0  0  0  0  0  0  0  0
    7.3472    1.4278    2.5851 C   0  0  3  0  0  0  0  0  0  0  0  0
    7.0714    0.6251    3.8744 C   0  0  0  0  0  0  0  0  0  0  0  0
    8.6794    1.0239    1.9682 C   0  0  0  0  0  0  0  0  0  0  0  0
    6.2912    4.7945    3.6727 C   0  0  0  0  0  0  0  0  0  0  0  0
    4.5107   -3.1683    3.6964 C   0  0  0  0  0  0  0  0  0  0  0  0
    5.0875   -4.0977    4.0865 N   0  0  0  0  0  0  0  0  0  0  0  0
    2.9349   -3.8249   -1.8401 H   0  0  0  0  0  0  0  0  0  0  0  0
    4.0323   -4.4996   -0.6106 H   0  0  0  0  0  0  0  0  0  0  0  0
    4.0637   -2.7746   -0.9578 H   0  0  0  0  0  0  0  0  0  0  0  0
    1.6983   -4.2881    0.2707 H   0  0  0  0  0  0  0  0  0  0  0  0
    1.7164   -2.5544   -0.0498 H   0  0  0  0  0  0  0  0  0  0  0  0
    3.3661    0.0464    3.4901 H   0  0  0  0  0  0  0  0  0  0  0  0
    5.8590   -0.7632   11.1806 H   0  0  0  0  0  0  0  0  0  0  0  0
    4.0734   -2.4165   10.7846 H   0  0  0  0  0  0  0  0  0  0  0  0
    3.1451   -2.7190    8.5273 H   0  0  0  0  0  0  0  0  0  0  0  0
    6.6181    1.9385    9.1140 H   0  0  0  0  0  0  0  0  0  0  0  0
    7.8478    0.7247    8.6872 H   0  0  0  0  0  0  0  0  0  0  0  0
    7.3788    0.9597   10.3735 H   0  0  0  0  0  0  0  0  0  0  0  0
    6.6959    2.7541    5.4862 H   0  0  0  0  0  0  0  0  0  0  0  0
    4.9484    2.9115    5.1900 H   0  0  0  0  0  0  0  0  0  0  0  0
    5.3606    3.1089    2.7253 H   0  0  0  0  0  0  0  0  0  0  0  0
    6.5487    1.2500    1.8534 H   0  0  0  0  0  0  0  0  0  0  0  0
    7.8973    0.7563    4.5859 H   0  0  0  0  0  0  0  0  0  0  0  0
    6.9997   -0.4417    3.6314 H   0  0  0  0  0  0  0  0  0  0  0  0
    9.5096    1.2438    2.6487 H   0  0  0  0  0  0  0  0  0  0  0  0
    8.8654    1.5960    1.0526 H   0  0  0  0  0  0  0  0  0  0  0  0
    8.6979   -0.0424    1.7236 H   0  0  0  0  0  0  0  0  0  0  0  0
    7.1264    5.0214    4.3443 H   0  0  0  0  0  0  0  0  0  0  0  0
    5.3722    5.2039    4.1033 H   0  0  0  0  0  0  0  0  0  0  0  0
    6.4960    5.3132    2.7298 H   0  0  0  0  0  0  0  0  0  0  0  0
  1  2  1  0  0  0  0
  1 30  1  0  0  0  0
  1 31  1  0  0  0  0
  1 32  1  0  0  0  0
  2  3  1  0  0  0  0
  2 33  1  0  0  0  0
  2 34  1  0  0  0  0
  3  4  1  0  0  0  0
  4  5  2  0  0  0  0
  4  6  1  0  0  0  0
  6  7  2  0  0  0  0
  6 28  1  0  0  0  0
  7  8  1  0  0  0  0
  7 35  1  0  0  0  0
  8  9  2  0  0  0  0
  8 17  1  0  0  0  0
  9 10  1  0  0  0  0
  9 20  1  0  0  0  0
 10 11  2  0  0  0  0
 11 12  1  0  0  0  0
 11 16  1  0  0  0  0
 12 13  2  0  0  0  0
 12 19  1  0  0  0  0
 13 14  1  0  0  0  0
 13 36  1  0  0  0  0
 14 15  2  0  0  0  0
 14 37  1  0  0  0  0
 15 16  1  0  0  0  0
 15 38  1  0  0  0  0
 16 17  1  0  0  0  0
 17 18  2  0  0  0  0
 19 39  1  0  0  0  0
 19 40  1  0  0  0  0
 19 41  1  0  0  0  0
 20 21  1  0  0  0  0
 20 25  1  0  0  0  0
 21 22  1  0  0  0  0
 21 42  1  0  0  0  0
 21 43  1  0  0  0  0
 22 23  1  0  0  0  0
 22 27  1  0  0  0  0
 22 44  1  0  0  0  0
 23 24  1  0  0  0  0
 24 25  1  0  0  0  0
 24 26  1  0  0  0  0
 24 45  1  0  0  0  0
 25 46  1  0  0  0  0
 25 47  1  0  0  0  0
 26 48  1  0  0  0  0
 26 49  1  0  0  0  0
 26 50  1  0  0  0  0
 27 51  1  0  0  0  0
 27 52  1  0  0  0  0
 27 53  1  0  0  0  0
 28 29  3  0  0  0  0
M  END
