
 OpenBabel10072620093D

 72 75  0  0  0  0  0  0  0  0999 V2000
   -0.3674    0.8300   -1.0246 C   0  0  0  0  0  0  0  0  0  0  0  0
   -1.0935   -0.3357   -0.7299 C   0  0  0  0  0  0  0  0  0  0  0  0
   -0.7872   -1.1309    0.3839 C   0  0  0  0  0  0  0  0  0  0  0  0
    0.2816   -0.7288    1.1859 C   0  0  0  0  0  0  0  0  0  0  0  0
    1.0127    0.4328    0.8991 C   0  0  0  0  0  0  0  0  0  0  0  0
    0.7008    1.2095   -0.2059 C   0  0  0  0  0  0  0  0  0  0  0  0
    1.4157    2.3837   -0.5200 N   0  0  0  0  0  0  0  0  0  0  0  0
    2.6861    2.7272   -0.0463 C   0  0  0  0  0  0  0  0  0  0  0  0
    3.3776    2.0975    0.7292 O   0  0  0  0  0  0  0  0  0  0  0  0
    3.2690    4.0020   -0.5324 C   0  0  0  0  0  0  0  0  0  0  0  0
    4.2279    4.6983    0.2331 C   0  0  0  0  0  0  0  0  0  0  0  0
    4.8281    5.8568   -0.2590 C   0  0  0  0  0  0  0  0  0  0  0  0
    4.5283    6.2998   -1.5461 C   0  0  0  0  0  0  0  0  0  0  0  0
    3.6116    5.5764   -2.3121 C   0  0  0  0  0  0  0  0  0  0  0  0
    2.9767    4.4377   -1.8193 C   0  0  0  0  0  0  0  0  0  0  0  0
    3.2710    5.9821   -3.9950 S   0  0  0  0  0  0  0  0  0  0  0  0
    3.5805    4.8094   -4.7733 O   0  0  0  0  0  0  0  0  0  0  0  0
    1.9598    6.6014   -4.0154 O   0  0  0  0  0  0  0  0  0  0  0  0
    4.3672    7.0850   -4.4083 O   0  0  0  0  0  0  0  0  0  0  0  0
    4.6864    4.2693    1.4533 O   0  0  0  0  0  0  0  0  0  0  0  0
    0.8140   -1.6549    2.5862 S   0  0  0  0  0  0  0  0  0  0  0  0
   -0.2601   -1.7533    3.5370 O   0  0  0  0  0  0  0  0  0  0  0  0
    1.5157   -2.8355    2.1094 O   0  0  0  0  0  0  0  0  0  0  0  0
    1.9412   -0.7245    3.2864 O   0  0  0  0  0  0  0  0  0  0  0  0
   -1.6356   -2.3025    0.6105 C   0  0  0  0  0  0  0  0  0  0  0  0
   -1.3123   -3.4997    0.1007 C   0  0  0  0  0  0  0  0  0  0  0  0
   -2.2474   -4.6285    0.0614 C   0  0  0  0  0  0  0  0  0  0  0  0
   -3.1186   -4.8547   -1.0138 C   0  0  0  0  0  0  0  0  0  0  0  0
   -3.9786   -5.9656   -1.0389 C   0  0  0  0  0  0  0  0  0  0  0  0
   -3.9893   -6.8841    0.0025 C   0  0  0  0  0  0  0  0  0  0  0  0
   -3.1104   -6.6885    1.0771 C   0  0  0  0  0  0  0  0  0  0  0  0
   -2.2596   -5.5632    1.1062 C   0  0  0  0  0  0  0  0  0  0  0  0
   -4.8701   -7.9936    0.0180 N   0  0  0  0  0  0  0  0  0  0  0  0
   -5.8429   -8.2984   -0.9334 C   0  0  0  0  0  0  0  0  0  0  0  0
   -6.1610   -7.6385   -1.9175 O   0  0  0  0  0  0  0  0  0  0  0  0
   -6.6420   -9.5230   -0.7118 C   0  0  0  0  0  0  0  0  0  0  0  0
   -7.9530   -9.6215   -1.2185 C   0  0  0  0  0  0  0  0  0  0  0  0
   -8.6931  -10.7903   -1.0680 C   0  0  0  0  0  0  0  0  0  0  0  0
   -8.1069  -11.9054   -0.4725 C   0  0  0  0  0  0  0  0  0  0  0  0
   -6.7926  -11.8109   -0.0016 C   0  0  0  0  0  0  0  0  0  0  0  0
   -6.0564  -10.6293   -0.1060 C   0  0  0  0  0  0  0  0  0  0  0  0
   -5.9582  -13.2370    0.6309 S   0  0  0  0  0  0  0  0  0  0  0  0
   -4.5496  -13.0602    0.3741 O   0  0  0  0  0  0  0  0  0  0  0  0
   -6.4783  -13.4809    1.9610 O   0  0  0  0  0  0  0  0  0  0  0  0
   -6.4158  -14.4430   -0.3324 O   0  0  0  0  0  0  0  0  0  0  0  0
   -8.5577   -8.6224   -1.9381 O   0  0  0  0  0  0  0  0  0  0  0  0
   -3.1542   -3.8182   -2.4430 S   0  0  0  0  0  0  0  0  0  0  0  0
   -4.1019   -2.7585   -2.1857 O   0  0  0  0  0  0  0  0  0  0  0  0
   -1.8028   -3.5391   -2.8779 O   0  0  0  0  0  0  0  0  0  0  0  0
   -3.8304   -4.7427   -3.5900 O   0  0  0  0  0  0  0  0  0  0  0  0
   -0.6380    1.4099   -1.9065 H   0  0  0  0  0  0  0  0  0  0  0  0
   -1.9008   -0.6440   -1.3883 H   0  0  0  0  0  0  0  0  0  0  0  0
    1.8030    0.7588    1.5706 H   0  0  0  0  0  0  0  0  0  0  0  0
    0.9494    2.9916   -1.1714 H   0  0  0  0  0  0  0  0  0  0  0  0
    5.5434    6.3898    0.3627 H   0  0  0  0  0  0  0  0  0  0  0  0
    5.0284    7.1818   -1.9378 H   0  0  0  0  0  0  0  0  0  0  0  0
    2.3238    3.8789   -2.4851 H   0  0  0  0  0  0  0  0  0  0  0  0
    4.8635    6.7362   -5.1794 H   0  0  0  0  0  0  0  0  0  0  0  0
    4.5080    3.3039    1.5153 H   0  0  0  0  0  0  0  0  0  0  0  0
    2.3663   -1.2317    4.0051 H   0  0  0  0  0  0  0  0  0  0  0  0
   -2.5679   -2.1020    1.1270 H   0  0  0  0  0  0  0  0  0  0  0  0
   -0.3851   -3.6387   -0.4470 H   0  0  0  0  0  0  0  0  0  0  0  0
   -4.6445   -6.1195   -1.8820 H   0  0  0  0  0  0  0  0  0  0  0  0
   -3.0524   -7.3964    1.9063 H   0  0  0  0  0  0  0  0  0  0  0  0
   -1.5902   -5.4271    1.9532 H   0  0  0  0  0  0  0  0  0  0  0  0
   -4.8124   -8.5724    0.8459 H   0  0  0  0  0  0  0  0  0  0  0  0
   -9.7121  -10.8193   -1.4459 H   0  0  0  0  0  0  0  0  0  0  0  0
   -8.6695  -12.8345   -0.4059 H   0  0  0  0  0  0  0  0  0  0  0  0
   -5.0195  -10.6202    0.2207 H   0  0  0  0  0  0  0  0  0  0  0  0
   -5.6030  -14.8451   -0.7074 H   0  0  0  0  0  0  0  0  0  0  0  0
   -7.8451   -8.0329   -2.2736 H   0  0  0  0  0  0  0  0  0  0  0  0
   -4.6632   -4.3167   -3.8848 H   0  0  0  0  0  0  0  0  0  0  0  0
  1  2  2  0  0  0  0
  1  6  1  0  0  0  0
  1 51  1  0  0  0  0
  2  3  1  0  0  0  0
  2 52  1  0  0  0  0
  3  4  2  0  0  0  0
  3 25  1  0  0  0  0
  4  5  1  0  0  0  0
  4 21  1  0  0  0  0
  5  6  2  0  0  0  0
  5 53  1  0  0  0  0
  6  7  1  0  0  0  0
  7  8  1  0  0  0  0
  7 54  1  0  0  0  0
  8  9  2  0  0  0  0
  8 10  1  0  0  0  0
 10 11  2  0  0  0  0
 10 15  1  0  0  0  0
 11 12  1  0  0  0  0
 11 20  1  0  0  0  0
 12 13  2  0  0  0  0
 12 55  1  0  0  0  0
 13 14  1  0  0  0  0
 13 56  1  0  0  0  0
 14 15  2  0  0  0  0
 14 16  1  0  0  0  0
 15 57  1  0  0  0  0
 16 17  2  0  0  0  0
 16 18  2  0  0  0  0
 16 19  1  0  0  0  0
 19 58  1  0  0  0  0
 20 59  1  0  0  0  0
 21 22  2  0  0  0  0
 21 23  2  0  0  0  0
 21 24  1  0  0  0  0
 24 60  1  0  0  0  0
 25 26  2  0  0  0  0
 25 61  1  0  0  0  0
 26 27  1  0  0  0  0
 26 62  1  0  0  0  0
 27 28  2  0  0  0  0
 27 32  1  0  0  0  0
 28 29  1  0  0  0  0
 28 47  1  0  0  0  0
 29 30  2  0  0  0  0
 29 63  1  0  0  0  0
 30 31  1  0  0  0  0
 30 33  1  0  0  0  0
 31 32  2  0  0  0  0
 31 64  1  0  0  0  0
 32 65  1  0  0  0  0
 33 34  1  0  0  0  0
 33 66  1  0  0  0  0
 34 35  2  0  0  0  0
 34 36  1  0  0  0  0
 36 37  2  0  0  0  0
 36 41  1  0  0  0  0
 37 38  1  0  0  0  0
 37 46  1  0  0  0  0
 38 39  2  0  0  0  0
 38 67  1  0  0  0  0
 39 40  1  0  0  0  0
 39 68  1  0  0  0  0
 40 41  2  0  0  0  0
 40 42  1  0  0  0  0
 41 69  1  0  0  0  0
 42 43  2  0  0  0  0
 42 44  2  0  0  0  0
 42 45  1  0  0  0  0
 45 70  1  0  0  0  0
 46 71  1  0  0  0  0
 47 48  2  0  0  0  0
 47 49  2  0  0  0  0
 47 50  1  0  0  0  0
 50 72  1  0  0  0  0
M  END
