
 OpenBabel10072620033D

 29 29  0  0  0  0  0  0  0  0999 V2000
    1.0445   -0.3083   -0.3099 C   0  0  0  0  0  0  0  0  0  0  0  0
    2.4831   -0.0952   -0.1750 N   0  0  0  0  0  0  0  0  0  0  0  0
    3.1648   -1.0129    0.7320 C   0  0  0  0  0  0  0  0  0  0  0  0
    3.0658    0.9863   -0.8214 C   0  0  0  0  0  0  0  0  0  0  0  0
    2.4198    1.7683   -1.5221 O   0  0  0  0  0  0  0  0  0  0  0  0
    4.5594    1.2051   -0.6456 C   0  0  0  0  0  0  0  0  0  0  0  0
    4.9967    2.4067   -1.4003 N   0  3  0  0  0  0  0  0  0  0  0  0
    4.9064    3.6302   -0.8246 C   0  0  0  0  0  0  0  0  0  0  0  0
    5.2981    4.7719   -1.5196 C   0  0  0  0  0  0  0  0  0  0  0  0
    5.7748    4.6567   -2.8211 C   0  0  0  0  0  0  0  0  0  0  0  0
    5.8436    3.3947   -3.3995 C   0  0  0  0  0  0  0  0  0  0  0  0
    5.4421    2.2745   -2.6741 C   0  0  0  0  0  0  0  0  0  0  0  0
    6.3435    3.2383   -4.7713 C   0  0  0  0  0  0  0  0  0  0  0  0
    6.4411    2.0653   -5.3084 N   0  0  0  0  0  0  0  0  0  0  0  0
    6.9490    2.2163   -6.6034 O   0  0  0  0  0  0  0  0  0  0  0  0
    0.8669   -1.3486   -0.5992 H   0  0  0  0  0  0  0  0  0  0  0  0
    0.5982    0.3474   -1.0620 H   0  0  0  0  0  0  0  0  0  0  0  0
    0.5719   -0.1121    0.6576 H   0  0  0  0  0  0  0  0  0  0  0  0
    2.9891   -2.0382    0.3942 H   0  0  0  0  0  0  0  0  0  0  0  0
    2.7490   -0.8853    1.7358 H   0  0  0  0  0  0  0  0  0  0  0  0
    4.2401   -0.8370    0.7719 H   0  0  0  0  0  0  0  0  0  0  0  0
    5.1206    0.3459   -1.0244 H   0  0  0  0  0  0  0  0  0  0  0  0
    4.8035    1.3737    0.4077 H   0  0  0  0  0  0  0  0  0  0  0  0
    4.5100    3.6871    0.1858 H   0  0  0  0  0  0  0  0  0  0  0  0
    5.2240    5.7506   -1.0487 H   0  0  0  0  0  0  0  0  0  0  0  0
    6.0769    5.5472   -3.3706 H   0  0  0  0  0  0  0  0  0  0  0  0
    5.4667    1.2729   -3.0954 H   0  0  0  0  0  0  0  0  0  0  0  0
    6.6364    4.1526   -5.3207 H   0  0  0  0  0  0  0  0  0  0  0  0
    6.9589    1.3041   -6.9519 H   0  0  0  0  0  0  0  0  0  0  0  0
  1  2  1  0  0  0  0
  1 16  1  0  0  0  0
  1 17  1  0  0  0  0
  1 18  1  0  0  0  0
  2  3  1  0  0  0  0
  2  4  1  0  0  0  0
  3 19  1  0  0  0  0
  3 20  1  0  0  0  0
  3 21  1  0  0  0  0
  4  5  2  0  0  0  0
  4  6  1  0  0  0  0
  6  7  1  0  0  0  0
  6 22  1  0  0  0  0
  6 23  1  0  0  0  0
  7  8  2  0  0  0  0
  7 12  1  0  0  0  0
  8  9  1  0  0  0  0
  8 24  1  0  0  0  0
  9 10  2  0  0  0  0
  9 25  1  0  0  0  0
 10 11  1  0  0  0  0
 10 26  1  0  0  0  0
 11 12  2  0  0  0  0
 11 13  1  0  0  0  0
 12 27  1  0  0  0  0
 13 14  2  0  0  0  0
 13 28  1  0  0  0  0
 14 15  1  0  0  0  0
 15 29  1  0  0  0  0
M  CHG  1   7   1
M  END
