
 OpenBabel10072619563D

 42 44  0  0  0  0  0  0  0  0999 V2000
   12.1284   -5.1419   -0.0215 C   0  0  0  0  0  0  0  0  0  0  0  0
   11.8247   -4.7437    1.3099 O   0  0  0  0  0  0  0  0  0  0  0  0
   10.5122   -4.4915    1.6001 C   0  0  0  0  0  0  0  0  0  0  0  0
    9.4530   -4.5057    0.6896 C   0  0  0  0  0  0  0  0  0  0  0  0
    8.1494   -4.2415    1.1240 C   0  0  0  0  0  0  0  0  0  0  0  0
    7.9094   -3.9691    2.4743 C   0  0  0  0  0  0  0  0  0  0  0  0
    8.9634   -3.9250    3.3869 C   0  0  0  0  0  0  0  0  0  0  0  0
   10.2606   -4.1910    2.9440 C   0  0  0  0  0  0  0  0  0  0  0  0
    6.2463   -3.6719    3.0217 S   0  0  0  0  0  0  0  0  0  0  0  0
    6.2899   -3.2062    4.3901 O   0  0  0  0  0  0  0  0  0  0  0  0
    5.5626   -2.9368    1.9819 O   0  0  0  0  0  0  0  0  0  0  0  0
    5.5861   -5.2175    3.0252 N   0  0  0  0  0  0  0  0  0  0  0  0
    6.2224   -6.2587    3.8463 C   0  0  0  0  0  0  0  0  0  0  0  0
    5.2084   -7.3567    4.1668 C   0  0  0  0  0  0  0  0  0  0  0  0
    5.7718   -8.4025    5.0738 C   0  0  0  0  0  0  0  0  0  0  0  0
    5.1466   -8.9627    6.1684 C   0  0  0  0  0  0  0  0  0  0  0  0
    6.1760  -10.1076    6.9108 S   0  0  0  0  0  0  0  0  0  0  0  0
    7.3909   -9.7940    5.7276 C   0  0  0  0  0  0  0  0  0  0  0  0
    7.0445   -8.8912    4.8266 N   0  0  0  0  0  0  0  0  0  0  0  0
    8.6987  -10.4679    5.7462 C   0  0  0  0  0  0  0  0  0  0  0  0
    9.0286  -11.5153    6.6043 C   0  0  0  0  0  0  0  0  0  0  0  0
   10.2327  -12.1444    6.6313 N   0  0  0  0  0  0  0  0  0  0  0  0
   11.1649  -11.7124    5.7574 C   0  0  0  0  0  0  0  0  0  0  0  0
   10.9511  -10.6819    4.8605 C   0  0  0  0  0  0  0  0  0  0  0  0
    9.7041  -10.0584    4.8583 C   0  0  0  0  0  0  0  0  0  0  0  0
   13.1977   -5.3713   -0.0653 H   0  0  0  0  0  0  0  0  0  0  0  0
   11.9308   -4.3295   -0.7284 H   0  0  0  0  0  0  0  0  0  0  0  0
   11.5827   -6.0504   -0.2982 H   0  0  0  0  0  0  0  0  0  0  0  0
    9.6074   -4.7154   -0.3643 H   0  0  0  0  0  0  0  0  0  0  0  0
    7.3323   -4.2491    0.4063 H   0  0  0  0  0  0  0  0  0  0  0  0
    8.7894   -3.6931    4.4353 H   0  0  0  0  0  0  0  0  0  0  0  0
   11.0860   -4.1655    3.6525 H   0  0  0  0  0  0  0  0  0  0  0  0
    5.1718   -5.4824    2.1331 H   0  0  0  0  0  0  0  0  0  0  0  0
    6.6033   -5.8306    4.7800 H   0  0  0  0  0  0  0  0  0  0  0  0
    7.0684   -6.6784    3.2906 H   0  0  0  0  0  0  0  0  0  0  0  0
    4.8729   -7.8349    3.2383 H   0  0  0  0  0  0  0  0  0  0  0  0
    4.3180   -6.9085    4.6260 H   0  0  0  0  0  0  0  0  0  0  0  0
    4.1611   -8.7533    6.5599 H   0  0  0  0  0  0  0  0  0  0  0  0
    8.3233  -11.9139    7.3284 H   0  0  0  0  0  0  0  0  0  0  0  0
   12.1181  -12.2318    5.7995 H   0  0  0  0  0  0  0  0  0  0  0  0
   11.7329  -10.3687    4.1776 H   0  0  0  0  0  0  0  0  0  0  0  0
    9.5191   -9.2444    4.1597 H   0  0  0  0  0  0  0  0  0  0  0  0
  1  2  1  0  0  0  0
  1 26  1  0  0  0  0
  1 27  1  0  0  0  0
  1 28  1  0  0  0  0
  2  3  1  0  0  0  0
  3  4  2  0  0  0  0
  3  8  1  0  0  0  0
  4  5  1  0  0  0  0
  4 29  1  0  0  0  0
  5  6  2  0  0  0  0
  5 30  1  0  0  0  0
  6  7  1  0  0  0  0
  6  9  1  0  0  0  0
  7  8  2  0  0  0  0
  7 31  1  0  0  0  0
  8 32  1  0  0  0  0
  9 10  2  0  0  0  0
  9 11  2  0  0  0  0
  9 12  1  0  0  0  0
 12 13  1  0  0  0  0
 12 33  1  0  0  0  0
 13 14  1  0  0  0  0
 13 34  1  0  0  0  0
 13 35  1  0  0  0  0
 14 15  1  0  0  0  0
 14 36  1  0  0  0  0
 14 37  1  0  0  0  0
 15 16  2  0  0  0  0
 15 19  1  0  0  0  0
 16 17  1  0  0  0  0
 16 38  1  0  0  0  0
 17 18  1  0  0  0  0
 18 19  2  0  0  0  0
 18 20  1  0  0  0  0
 20 21  2  0  0  0  0
 20 25  1  0  0  0  0
 21 22  1  0  0  0  0
 21 39  1  0  0  0  0
 22 23  2  0  0  0  0
 23 24  1  0  0  0  0
 23 40  1  0  0  0  0
 24 25  2  0  0  0  0
 24 41  1  0  0  0  0
 25 42  1  0  0  0  0
M  END
