
 OpenBabel10072620033D

 29 29  0  0  0  0  0  0  0  0999 V2000
    1.4566   -0.3678   -0.1662 C   0  0  0  0  0  0  0  0  0  0  0  0
    0.5018   -1.3803   -0.0309 C   0  0  0  0  0  0  0  0  0  0  0  0
   -0.8510   -1.0441    0.0190 C   0  0  0  0  0  0  0  0  0  0  0  0
   -1.2524    0.2897   -0.0723 C   0  0  0  0  0  0  0  0  0  0  0  0
   -0.2902    1.2964   -0.2029 C   0  0  0  0  0  0  0  0  0  0  0  0
    1.0693    0.9771   -0.2572 C   0  0  0  0  0  0  0  0  0  0  0  0
    2.0943    1.9362   -0.3770 N   0  0  0  0  0  0  0  0  0  0  0  0
    1.9543    3.2847   -0.6082 C   0  0  0  0  0  0  0  0  0  0  0  0
    0.9230    3.8898   -0.8628 O   0  0  0  0  0  0  0  0  0  0  0  0
    3.1762    3.9235   -0.5439 N   0  0  0  0  0  0  0  0  0  0  0  0
    3.2252    5.3840   -0.6554 C   0  0  0  0  0  0  0  0  0  0  0  0
    2.8679    6.1435    0.6252 C   0  0  0  0  0  0  0  0  0  0  0  0
    3.6628    5.7315    1.6447 F   0  0  0  0  0  0  0  0  0  0  0  0
    3.0799    7.4704    0.4655 F   0  0  0  0  0  0  0  0  0  0  0  0
    1.5892    5.9729    1.0090 F   0  0  0  0  0  0  0  0  0  0  0  0
   -2.0780   -2.3063    0.1762 S   0  0  0  0  0  0  0  0  0  0  0  0
   -3.1208   -2.0673   -0.7927 O   0  0  0  0  0  0  0  0  0  0  0  0
   -1.4291   -3.5890    0.3221 O   0  0  0  0  0  0  0  0  0  0  0  0
   -2.7468   -1.9714    1.6799 N   0  0  0  0  0  0  0  0  0  0  0  0
    2.5063   -0.6482   -0.2018 H   0  0  0  0  0  0  0  0  0  0  0  0
    0.8221   -2.4181    0.0306 H   0  0  0  0  0  0  0  0  0  0  0  0
   -2.3064    0.5561   -0.0426 H   0  0  0  0  0  0  0  0  0  0  0  0
   -0.6363    2.3247   -0.2561 H   0  0  0  0  0  0  0  0  0  0  0  0
    3.0376    1.5827   -0.4276 H   0  0  0  0  0  0  0  0  0  0  0  0
    3.8577    3.5017    0.0716 H   0  0  0  0  0  0  0  0  0  0  0  0
    2.5644    5.7013   -1.4691 H   0  0  0  0  0  0  0  0  0  0  0  0
    4.2524    5.6308   -0.9423 H   0  0  0  0  0  0  0  0  0  0  0  0
   -3.7356   -1.7417    1.5741 H   0  0  0  0  0  0  0  0  0  0  0  0
   -2.5708   -2.7494    2.3161 H   0  0  0  0  0  0  0  0  0  0  0  0
  1  2  2  0  0  0  0
  1  6  1  0  0  0  0
  1 20  1  0  0  0  0
  2  3  1  0  0  0  0
  2 21  1  0  0  0  0
  3  4  2  0  0  0  0
  3 16  1  0  0  0  0
  4  5  1  0  0  0  0
  4 22  1  0  0  0  0
  5  6  2  0  0  0  0
  5 23  1  0  0  0  0
  6  7  1  0  0  0  0
  7  8  1  0  0  0  0
  7 24  1  0  0  0  0
  8  9  2  0  0  0  0
  8 10  1  0  0  0  0
 10 11  1  0  0  0  0
 10 25  1  0  0  0  0
 11 12  1  0  0  0  0
 11 26  1  0  0  0  0
 11 27  1  0  0  0  0
 12 13  1  0  0  0  0
 12 14  1  0  0  0  0
 12 15  1  0  0  0  0
 16 17  2  0  0  0  0
 16 18  2  0  0  0  0
 16 19  1  0  0  0  0
 19 28  1  0  0  0  0
 19 29  1  0  0  0  0
M  END
