
 OpenBabel10072620003D

 36 35  0  0  0  0  0  0  0  0999 V2000
    2.8431   -1.0872    1.1801 C   0  0  0  0  0  0  0  0  0  0  0  0
    2.4362   -0.1594    0.0228 C   0  0  0  0  0  0  0  0  0  0  0  0
    2.8632   -0.7966   -1.3097 C   0  0  0  0  0  0  0  0  0  0  0  0
    0.9012   -0.0163    0.0319 C   0  0  0  0  0  0  0  0  0  0  0  0
    3.0520    1.2556    0.2004 C   0  0  0  0  0  0  0  0  0  0  0  0
    4.5847    1.3185    0.1877 C   0  0  0  0  0  0  0  0  0  0  0  0
    5.1344    2.7407    0.3563 C   0  0  0  0  0  0  0  0  0  0  0  0
    4.7716    3.4482    1.6654 C   0  0  0  0  0  0  0  0  0  0  0  0
    5.1977    2.6751    2.9116 C   0  0  0  0  0  0  0  0  0  0  0  0
    4.9401    3.4503    4.1840 C   0  0  0  0  0  0  0  0  0  0  0  0
    4.5506    4.6094    4.2382 O   0  0  0  0  0  0  0  0  0  0  0  0
    5.2238    2.6313    5.2521 O   0  0  0  0  0  0  0  0  0  0  0  0
    5.0186    3.1768    6.5182 C   0  0  0  0  0  0  0  0  0  0  0  0
    5.3346    2.5006    7.6238 C   0  0  0  0  0  0  0  0  0  0  0  0
    2.3297   -2.0530    1.1092 H   0  0  0  0  0  0  0  0  0  0  0  0
    2.5864   -0.6450    2.1492 H   0  0  0  0  0  0  0  0  0  0  0  0
    3.9182   -1.2934    1.1782 H   0  0  0  0  0  0  0  0  0  0  0  0
    2.3353   -1.7418   -1.4815 H   0  0  0  0  0  0  0  0  0  0  0  0
    3.9348   -1.0209   -1.3273 H   0  0  0  0  0  0  0  0  0  0  0  0
    2.6429   -0.1348   -2.1545 H   0  0  0  0  0  0  0  0  0  0  0  0
    0.4088   -0.9897   -0.0745 H   0  0  0  0  0  0  0  0  0  0  0  0
    0.5580    0.6226   -0.7897 H   0  0  0  0  0  0  0  0  0  0  0  0
    0.5531    0.4308    0.9700 H   0  0  0  0  0  0  0  0  0  0  0  0
    2.6833    1.6725    1.1458 H   0  0  0  0  0  0  0  0  0  0  0  0
    2.6728    1.9135   -0.5933 H   0  0  0  0  0  0  0  0  0  0  0  0
    4.9585    0.9354   -0.7685 H   0  0  0  0  0  0  0  0  0  0  0  0
    5.0041    0.6736    0.9660 H   0  0  0  0  0  0  0  0  0  0  0  0
    4.7901    3.3598   -0.4811 H   0  0  0  0  0  0  0  0  0  0  0  0
    6.2276    2.6969    0.2746 H   0  0  0  0  0  0  0  0  0  0  0  0
    3.6946    3.6483    1.7013 H   0  0  0  0  0  0  0  0  0  0  0  0
    5.2553    4.4332    1.6644 H   0  0  0  0  0  0  0  0  0  0  0  0
    6.2685    2.4506    2.8647 H   0  0  0  0  0  0  0  0  0  0  0  0
    4.6353    1.7379    2.9773 H   0  0  0  0  0  0  0  0  0  0  0  0
    4.5871    4.1699    6.5342 H   0  0  0  0  0  0  0  0  0  0  0  0
    5.7643    1.5058    7.5709 H   0  0  0  0  0  0  0  0  0  0  0  0
    5.1688    2.9329    8.6043 H   0  0  0  0  0  0  0  0  0  0  0  0
  1  2  1  0  0  0  0
  1 15  1  0  0  0  0
  1 16  1  0  0  0  0
  1 17  1  0  0  0  0
  2  3  1  0  0  0  0
  2  4  1  0  0  0  0
  2  5  1  0  0  0  0
  3 18  1  0  0  0  0
  3 19  1  0  0  0  0
  3 20  1  0  0  0  0
  4 21  1  0  0  0  0
  4 22  1  0  0  0  0
  4 23  1  0  0  0  0
  5  6  1  0  0  0  0
  5 24  1  0  0  0  0
  5 25  1  0  0  0  0
  6  7  1  0  0  0  0
  6 26  1  0  0  0  0
  6 27  1  0  0  0  0
  7  8  1  0  0  0  0
  7 28  1  0  0  0  0
  7 29  1  0  0  0  0
  8  9  1  0  0  0  0
  8 30  1  0  0  0  0
  8 31  1  0  0  0  0
  9 10  1  0  0  0  0
  9 32  1  0  0  0  0
  9 33  1  0  0  0  0
 10 11  2  0  0  0  0
 10 12  1  0  0  0  0
 12 13  1  0  0  0  0
 13 14  2  0  0  0  0
 13 34  1  0  0  0  0
 14 35  1  0  0  0  0
 14 36  1  0  0  0  0
M  END
