
 OpenBabel10072619473D

 73 77  0  0  1  0  0  0  0  0999 V2000
    9.1559   -1.9120    5.1504 C   0  0  0  0  0  0  0  0  0  0  0  0
    8.2073   -2.4961    6.0354 C   0  0  0  0  0  0  0  0  0  0  0  0
    6.9771   -2.7484    5.5852 C   0  0  0  0  0  0  0  0  0  0  0  0
    6.6588   -2.4250    4.2437 C   0  0  0  0  0  0  0  0  0  0  0  0
    7.5118   -1.5881    3.5121 N   0  3  0  0  0  0  0  0  0  0  0  0
    8.7142   -1.3446    3.9439 C   0  0  0  0  0  0  0  0  0  0  0  0
    7.0471   -0.9846    2.2548 C   0  0  1  0  0  0  0  0  0  0  0  0
    7.9505   -1.4333    1.0904 C   0  0  1  0  0  0  0  0  0  0  0  0
    6.9743   -1.4366   -0.0936 C   0  0  1  0  0  0  0  0  0  0  0  0
    5.6264   -1.7534    0.5669 C   0  0  2  0  0  0  0  0  0  0  0  0
    5.7527   -1.4135    1.9710 O   0  0  0  0  0  0  0  0  0  0  0  0
    5.3047   -3.2311    0.4143 C   0  0  0  0  0  0  0  0  0  0  0  0
    5.2365   -3.5607   -0.9653 O   0  0  0  0  0  0  0  0  0  0  0  0
    4.8704   -5.2425   -1.1390 P   0  0  3  0  0  0  0  0  0  0  0  0
    6.3832   -5.5723   -1.1349 O   0  0  0  0  0  0  0  0  0  0  0  0
    3.9893   -5.2044    0.3494 O   0  0  0  0  0  0  0  0  0  0  0  0
    4.5042   -6.9244   -1.3127 O   0  0  0  0  0  0  0  0  0  0  0  0
    5.4849   -7.6015   -2.5667 P   0  0  3  0  0  0  0  0  0  0  0  0
    4.3922   -7.2561   -3.6079 O   0  0  0  0  0  0  0  0  0  0  0  0
    6.7320   -6.4570   -2.2094 O   0  0  0  0  0  0  0  0  0  0  0  0
    6.4657   -8.2787   -3.8207 O   0  0  0  0  0  0  0  0  0  0  0  0
    7.3043   -7.2693   -4.3629 C   0  0  0  0  0  0  0  0  0  0  0  0
    8.1646   -7.8638   -5.4660 C   0  0  2  0  0  0  0  0  0  0  0  0
    9.0464   -8.9977   -4.9273 C   0  0  2  0  0  0  0  0  0  0  0  0
   10.4003   -8.3106   -4.7045 C   0  0  2  0  0  0  0  0  0  0  0  0
   10.3847   -7.2063   -5.7785 C   0  0  1  0  0  0  0  0  0  0  0  0
    9.0558   -6.8484   -5.9929 O   0  0  0  0  0  0  0  0  0  0  0  0
   11.1490   -6.0409   -5.3110 N   0  0  0  0  0  0  0  0  0  0  0  0
   13.3998   -6.8490   -8.6648 C   0  0  0  0  0  0  0  0  0  0  0  0
   12.6734   -6.5344   -7.5188 N   0  0  0  0  0  0  0  0  0  0  0  0
   13.3185   -6.4471   -6.2875 C   0  0  0  0  0  0  0  0  0  0  0  0
   14.6844   -6.6719   -6.1930 C   0  0  0  0  0  0  0  0  0  0  0  0
   15.2863   -6.5805   -4.9465 N   0  0  0  0  0  0  0  0  0  0  0  0
   14.5120   -6.2648   -3.8468 C   0  0  0  0  0  0  0  0  0  0  0  0
   13.2130   -6.0509   -3.9727 N   0  0  0  0  0  0  0  0  0  0  0  0
   12.6066   -6.1358   -5.1464 C   0  0  0  0  0  0  0  0  0  0  0  0
   15.4762   -6.9996   -7.3874 N   0  0  0  0  0  0  0  0  0  0  0  0
   11.4980   -9.1802   -4.8315 O   0  0  0  0  0  0  0  0  0  0  0  0
    9.2448  -10.0214   -5.8883 O   0  0  0  0  0  0  0  0  0  0  0  0
    6.9967   -0.1383   -0.6636 O   0  0  0  0  0  0  0  0  0  0  0  0
    9.0581   -0.5877    0.9015 O   0  0  0  0  0  0  0  0  0  0  0  0
    5.9339   -3.3728    6.4974 C   0  0  0  0  0  0  0  0  0  0  0  0
    4.7857   -2.4636    6.6233 N   0  0  0  0  0  0  0  0  0  0  0  0
   10.1590   -1.9053    5.3927 H   0  0  0  0  0  0  0  0  0  0  0  0
    8.4664   -2.7207    7.0088 H   0  0  0  0  0  0  0  0  0  0  0  0
    5.8035   -2.8035    3.8075 H   0  0  0  0  0  0  0  0  0  0  0  0
    9.3440   -0.7343    3.3999 H   0  0  0  0  0  0  0  0  0  0  0  0
    7.0754    0.0794    2.3647 H   0  0  0  0  0  0  0  0  0  0  0  0
    8.4147   -2.3839    1.2507 H   0  0  0  0  0  0  0  0  0  0  0  0
    7.1961   -2.1319   -0.8760 H   0  0  0  0  0  0  0  0  0  0  0  0
    4.8360   -1.1966    0.1086 H   0  0  0  0  0  0  0  0  0  0  0  0
    4.3635   -3.4410    0.8780 H   0  0  0  0  0  0  0  0  0  0  0  0
    6.0707   -3.8132    0.8826 H   0  0  0  0  0  0  0  0  0  0  0  0
    4.0182   -4.3082    0.7194 H   0  0  0  0  0  0  0  0  0  0  0  0
    6.4466   -5.8851   -1.4797 H   0  0  0  0  0  0  0  0  0  0  0  0
    7.9340   -6.8766   -3.5920 H   0  0  0  0  0  0  0  0  0  0  0  0
    6.7011   -6.4827   -4.7658 H   0  0  0  0  0  0  0  0  0  0  0  0
    7.5048   -8.2366   -6.2213 H   0  0  0  0  0  0  0  0  0  0  0  0
    8.6090   -9.4524   -4.0631 H   0  0  0  0  0  0  0  0  0  0  0  0
   10.5197   -7.9376   -3.7088 H   0  0  0  0  0  0  0  0  0  0  0  0
   10.8312   -7.5569   -6.6855 H   0  0  0  0  0  0  0  0  0  0  0  0
   13.9509   -7.0669   -9.5097 H   0  0  0  0  0  0  0  0  0  0  0  0
   14.9524   -6.1952   -2.9161 H   0  0  0  0  0  0  0  0  0  0  0  0
   15.0379   -7.0616   -8.2668 H   0  0  0  0  0  0  0  0  0  0  0  0
   16.4448   -7.1570   -7.3079 H   0  0  0  0  0  0  0  0  0  0  0  0
   11.4907   -9.5834   -5.7138 H   0  0  0  0  0  0  0  0  0  0  0  0
    9.6419   -9.6418   -6.6878 H   0  0  0  0  0  0  0  0  0  0  0  0
    6.7988    0.5191    0.0216 H   0  0  0  0  0  0  0  0  0  0  0  0
    8.7499    0.3185    0.7447 H   0  0  0  0  0  0  0  0  0  0  0  0
    6.3612   -3.5436    7.4634 H   0  0  0  0  0  0  0  0  0  0  0  0
    5.6080   -4.3035    6.0820 H   0  0  0  0  0  0  0  0  0  0  0  0
    5.0964   -1.5764    7.0193 H   0  0  0  0  0  0  0  0  0  0  0  0
    4.0857   -2.8826    7.2354 H   0  0  0  0  0  0  0  0  0  0  0  0
  1  2  2  0  0  0  0
  1  6  1  0  0  0  0
  1 44  1  0  0  0  0
  2  3  1  0  0  0  0
  2 45  1  0  0  0  0
  3  4  2  0  0  0  0
  3 42  1  0  0  0  0
  4  5  1  0  0  0  0
  4 46  1  0  0  0  0
  5  6  2  0  0  0  0
  5  7  1  0  0  0  0
  6 47  1  0  0  0  0
  7  8  1  0  0  0  0
  7 11  1  0  0  0  0
  7 48  1  1  0  0  0
  8  9  1  0  0  0  0
  8 41  1  0  0  0  0
  8 49  1  1  0  0  0
  9 10  1  0  0  0  0
  9 40  1  0  0  0  0
  9 50  1  6  0  0  0
 10 11  1  0  0  0  0
 10 12  1  0  0  0  0
 10 51  1  6  0  0  0
 12 13  1  0  0  0  0
 12 52  1  0  0  0  0
 12 53  1  0  0  0  0
 13 14  1  0  0  0  0
 14 15  2  0  0  0  0
 14 16  1  0  0  0  0
 14 17  1  0  0  0  0
 16 54  1  0  0  0  0
 17 18  1  0  0  0  0
 18 19  2  0  0  0  0
 18 20  1  0  0  0  0
 18 21  1  0  0  0  0
 20 55  1  0  0  0  0
 21 22  1  0  0  0  0
 22 23  1  0  0  0  0
 22 56  1  0  0  0  0
 22 57  1  0  0  0  0
 23 24  1  0  0  0  0
 23 27  1  0  0  0  0
 23 58  1  6  0  0  0
 24 25  1  0  0  0  0
 24 39  1  0  0  0  0
 24 59  1  1  0  0  0
 25 26  1  0  0  0  0
 25 38  1  0  0  0  0
 25 60  1  1  0  0  0
 26 27  1  0  0  0  0
 26 28  1  0  0  0  0
 26 61  1  6  0  0  0
 28 29  1  0  0  0  0
 28 36  1  0  0  0  0
 29 30  2  0  0  0  0
 29 62  1  0  0  0  0
 30 31  1  0  0  0  0
 31 32  2  0  0  0  0
 31 36  1  0  0  0  0
 32 33  1  0  0  0  0
 32 37  1  0  0  0  0
 33 34  2  0  0  0  0
 34 35  1  0  0  0  0
 34 63  1  0  0  0  0
 35 36  2  0  0  0  0
 37 64  1  0  0  0  0
 37 65  1  0  0  0  0
 38 66  1  0  0  0  0
 39 67  1  0  0  0  0
 40 68  1  0  0  0  0
 41 69  1  0  0  0  0
 42 43  1  0  0  0  0
 42 70  1  0  0  0  0
 42 71  1  0  0  0  0
 43 72  1  0  0  0  0
 43 73  1  0  0  0  0
M  CHG  1   5   1
M  END
