
 OpenBabel10072619443D

 45 44  0  0  1  0  0  0  0  0999 V2000
    1.0135   -0.8528   -1.2973 C   0  0  0  0  0  0  0  0  0  0  0  0
    2.5220   -0.8389   -1.1068 C   0  0  0  0  0  0  0  0  0  0  0  0
    2.9556   -1.8059   -0.0038 C   0  0  0  0  0  0  0  0  0  0  0  0
    4.4775   -1.8029    0.1717 C   0  0  0  0  0  0  0  0  0  0  0  0
    4.9741   -2.6210    1.3888 C   0  0  3  0  0  0  0  0  0  0  0  0
    4.5026   -4.0916    1.3731 C   0  0  0  0  0  0  0  0  0  0  0  0
    5.0372   -4.9293    0.2202 C   0  0  0  0  0  0  0  0  0  0  0  0
    6.5113   -2.4637    1.5006 C   0  0  0  0  0  0  0  0  0  0  0  0
    7.1113   -3.0955    2.7610 C   0  0  0  0  0  0  0  0  0  0  0  0
    8.6435   -2.9630    2.8497 C   0  0  3  0  0  0  0  0  0  0  0  0
    9.0994   -1.5108    3.0550 C   0  0  0  0  0  0  0  0  0  0  0  0
   10.6155   -1.3899    3.1616 C   0  0  0  0  0  0  0  0  0  0  0  0
    9.0943   -3.7190    3.9961 O   0  0  0  0  0  0  0  0  0  0  0  0
    9.3236   -5.0388    3.7848 C   0  0  0  0  0  0  0  0  0  0  0  0
    9.1853   -5.6481    2.7374 O   0  0  0  0  0  0  0  0  0  0  0  0
    9.7717   -5.6291    5.0634 C   0  0  0  0  0  0  0  0  0  0  0  0
   10.0465   -6.9368    5.1560 C   0  0  0  0  0  0  0  0  0  0  0  0
    0.7259   -0.1618   -2.0960 H   0  0  0  0  0  0  0  0  0  0  0  0
    0.4997   -0.5467   -0.3804 H   0  0  0  0  0  0  0  0  0  0  0  0
    0.6629   -1.8532   -1.5708 H   0  0  0  0  0  0  0  0  0  0  0  0
    2.8438    0.1792   -0.8592 H   0  0  0  0  0  0  0  0  0  0  0  0
    3.0065   -1.1114   -2.0515 H   0  0  0  0  0  0  0  0  0  0  0  0
    2.6103   -2.8128   -0.2634 H   0  0  0  0  0  0  0  0  0  0  0  0
    2.4737   -1.5256    0.9405 H   0  0  0  0  0  0  0  0  0  0  0  0
    4.8093   -0.7635    0.2964 H   0  0  0  0  0  0  0  0  0  0  0  0
    4.9509   -2.1665   -0.7486 H   0  0  0  0  0  0  0  0  0  0  0  0
    4.5347   -2.1600    2.2847 H   0  0  0  0  0  0  0  0  0  0  0  0
    3.4074   -4.1272    1.3541 H   0  0  0  0  0  0  0  0  0  0  0  0
    4.7800   -4.5770    2.3156 H   0  0  0  0  0  0  0  0  0  0  0  0
    4.7514   -4.5122   -0.7494 H   0  0  0  0  0  0  0  0  0  0  0  0
    4.6288   -5.9437    0.2772 H   0  0  0  0  0  0  0  0  0  0  0  0
    6.1270   -5.0135    0.2564 H   0  0  0  0  0  0  0  0  0  0  0  0
    6.7408   -1.3919    1.4986 H   0  0  0  0  0  0  0  0  0  0  0  0
    6.9980   -2.8840    0.6124 H   0  0  0  0  0  0  0  0  0  0  0  0
    6.8599   -4.1607    2.7967 H   0  0  0  0  0  0  0  0  0  0  0  0
    6.6519   -2.6556    3.6555 H   0  0  0  0  0  0  0  0  0  0  0  0
    9.1112   -3.3509    1.9353 H   0  0  0  0  0  0  0  0  0  0  0  0
    8.6588   -1.1090    3.9753 H   0  0  0  0  0  0  0  0  0  0  0  0
    8.7638   -0.8823    2.2244 H   0  0  0  0  0  0  0  0  0  0  0  0
   11.0022   -1.9328    4.0296 H   0  0  0  0  0  0  0  0  0  0  0  0
   10.9018   -0.3388    3.2697 H   0  0  0  0  0  0  0  0  0  0  0  0
   11.1025   -1.7831    2.2636 H   0  0  0  0  0  0  0  0  0  0  0  0
    9.8666   -4.9681    5.9159 H   0  0  0  0  0  0  0  0  0  0  0  0
    9.9495   -7.5998    4.3002 H   0  0  0  0  0  0  0  0  0  0  0  0
   10.3736   -7.3707    6.0943 H   0  0  0  0  0  0  0  0  0  0  0  0
  1  2  1  0  0  0  0
  1 18  1  0  0  0  0
  1 19  1  0  0  0  0
  1 20  1  0  0  0  0
  2  3  1  0  0  0  0
  2 21  1  0  0  0  0
  2 22  1  0  0  0  0
  3  4  1  0  0  0  0
  3 23  1  0  0  0  0
  3 24  1  0  0  0  0
  4  5  1  0  0  0  0
  4 25  1  0  0  0  0
  4 26  1  0  0  0  0
  5  6  1  0  0  0  0
  5  8  1  0  0  0  0
  5 27  1  0  0  0  0
  6  7  1  0  0  0  0
  6 28  1  0  0  0  0
  6 29  1  0  0  0  0
  7 30  1  0  0  0  0
  7 31  1  0  0  0  0
  7 32  1  0  0  0  0
  8  9  1  0  0  0  0
  8 33  1  0  0  0  0
  8 34  1  0  0  0  0
  9 10  1  0  0  0  0
  9 35  1  0  0  0  0
  9 36  1  0  0  0  0
 10 11  1  0  0  0  0
 10 13  1  0  0  0  0
 10 37  1  0  0  0  0
 11 12  1  0  0  0  0
 11 38  1  0  0  0  0
 11 39  1  0  0  0  0
 12 40  1  0  0  0  0
 12 41  1  0  0  0  0
 12 42  1  0  0  0  0
 13 14  1  0  0  0  0
 14 15  2  0  0  0  0
 14 16  1  0  0  0  0
 16 17  2  0  0  0  0
 16 43  1  0  0  0  0
 17 44  1  0  0  0  0
 17 45  1  0  0  0  0
M  END
