
 OpenBabel10072616443D

 54 58  0  0  0  0  0  0  0  0999 V2000
    2.9555    0.1516   -0.9182 C   0  0  0  0  0  0  0  0  0  0  0  0
    1.4620    0.1578   -1.1003 C   0  0  0  0  0  0  0  0  0  0  0  0
    0.8211    1.3549   -1.4543 C   0  0  0  0  0  0  0  0  0  0  0  0
   -0.5600    1.3963   -1.6726 C   0  0  0  0  0  0  0  0  0  0  0  0
   -1.3237    0.2395   -1.5652 C   0  0  0  0  0  0  0  0  0  0  0  0
   -0.7062   -0.9577   -1.2359 C   0  0  0  0  0  0  0  0  0  0  0  0
    0.6712   -0.9991   -0.9629 C   0  0  0  0  0  0  0  0  0  0  0  0
    1.2225   -2.2541   -0.5934 N   0  0  0  0  0  0  0  0  0  0  0  0
    1.7160   -2.5142    0.6849 C   0  0  0  0  0  0  0  0  0  0  0  0
    2.3972   -3.5983    0.9539 N   0  0  0  0  0  0  0  0  0  0  0  0
    2.5336   -4.5899   -0.0448 C   0  0  0  0  0  0  0  0  0  0  0  0
    1.8796   -4.4946   -1.2727 C   0  0  0  0  0  0  0  0  0  0  0  0
    1.2275   -3.2275   -1.5952 C   0  0  0  0  0  0  0  0  0  0  0  0
    0.7482   -3.0986   -2.7242 O   0  0  0  0  0  0  0  0  0  0  0  0
    1.8609   -5.5507   -2.1975 C   0  0  0  0  0  0  0  0  0  0  0  0
    2.5513   -6.7181   -1.9156 C   0  0  0  0  0  0  0  0  0  0  0  0
    3.2878   -6.8155   -0.7339 C   0  0  0  0  0  0  0  0  0  0  0  0
    3.2663   -5.7576    0.1961 C   0  0  0  0  0  0  0  0  0  0  0  0
    2.4622   -8.3143   -3.2437 I   0  0  0  0  0  0  0  0  0  0  0  0
    1.4088   -1.5366    1.8127 C   0  0  0  0  0  0  0  0  0  0  0  0
    0.1638   -1.0908    2.0699 C   0  0  0  0  0  0  0  0  0  0  0  0
   -0.3116   -0.3356    3.2060 C   0  0  0  0  0  0  0  0  0  0  0  0
   -0.9194   -0.9533    4.2912 C   0  0  0  0  0  0  0  0  0  0  0  0
   -1.3888    0.0365    5.1355 N   0  0  0  0  0  0  0  0  0  0  0  0
   -1.1021    1.2836    4.6058 C   0  0  0  0  0  0  0  0  0  0  0  0
   -1.3969    2.5718    5.1000 C   0  0  0  0  0  0  0  0  0  0  0  0
   -1.0497    3.6788    4.3261 C   0  0  0  0  0  0  0  0  0  0  0  0
   -0.4231    3.5064    3.0963 C   0  0  0  0  0  0  0  0  0  0  0  0
   -0.1205    2.2235    2.6154 C   0  0  0  0  0  0  0  0  0  0  0  0
   -0.4484    1.0807    3.3790 C   0  0  0  0  0  0  0  0  0  0  0  0
   -2.1221   -0.1218    6.3777 C   0  0  0  0  0  0  0  0  0  0  0  0
   -1.0703   -2.4210    4.5084 C   0  0  0  0  0  0  0  0  0  0  0  0
    3.4101    1.0494   -1.3521 H   0  0  0  0  0  0  0  0  0  0  0  0
    3.4117   -0.7049   -1.4254 H   0  0  0  0  0  0  0  0  0  0  0  0
    3.2154    0.1264    0.1430 H   0  0  0  0  0  0  0  0  0  0  0  0
    1.3970    2.2694   -1.5792 H   0  0  0  0  0  0  0  0  0  0  0  0
   -1.0402    2.3323   -1.9427 H   0  0  0  0  0  0  0  0  0  0  0  0
   -2.3957    0.2636   -1.7386 H   0  0  0  0  0  0  0  0  0  0  0  0
   -1.3022   -1.8652   -1.1633 H   0  0  0  0  0  0  0  0  0  0  0  0
    1.2972   -5.4447   -3.1250 H   0  0  0  0  0  0  0  0  0  0  0  0
    3.8613   -7.7128   -0.5174 H   0  0  0  0  0  0  0  0  0  0  0  0
    3.8205   -5.8653    1.1274 H   0  0  0  0  0  0  0  0  0  0  0  0
    2.2279   -1.3477    2.4994 H   0  0  0  0  0  0  0  0  0  0  0  0
   -0.6434   -1.4204    1.4203 H   0  0  0  0  0  0  0  0  0  0  0  0
   -1.8994    2.7148    6.0515 H   0  0  0  0  0  0  0  0  0  0  0  0
   -1.2841    4.6783    4.6849 H   0  0  0  0  0  0  0  0  0  0  0  0
   -0.1718    4.3812    2.5009 H   0  0  0  0  0  0  0  0  0  0  0  0
    0.3556    2.1113    1.6465 H   0  0  0  0  0  0  0  0  0  0  0  0
   -2.5228   -1.1266    6.4790 H   0  0  0  0  0  0  0  0  0  0  0  0
   -2.9622    0.5798    6.3900 H   0  0  0  0  0  0  0  0  0  0  0  0
   -1.4452    0.1050    7.2063 H   0  0  0  0  0  0  0  0  0  0  0  0
   -1.4996   -2.8843    3.6114 H   0  0  0  0  0  0  0  0  0  0  0  0
   -1.7097   -2.6858    5.3483 H   0  0  0  0  0  0  0  0  0  0  0  0
   -0.0834   -2.8673    4.6707 H   0  0  0  0  0  0  0  0  0  0  0  0
  1  2  1  0  0  0  0
  1 33  1  0  0  0  0
  1 34  1  0  0  0  0
  1 35  1  0  0  0  0
  2  3  2  0  0  0  0
  2  7  1  0  0  0  0
  3  4  1  0  0  0  0
  3 36  1  0  0  0  0
  4  5  2  0  0  0  0
  4 37  1  0  0  0  0
  5  6  1  0  0  0  0
  5 38  1  0  0  0  0
  6  7  2  0  0  0  0
  6 39  1  0  0  0  0
  7  8  1  0  0  0  0
  8  9  1  0  0  0  0
  8 13  1  0  0  0  0
  9 10  2  0  0  0  0
  9 20  1  0  0  0  0
 10 11  1  0  0  0  0
 11 12  2  0  0  0  0
 11 18  1  0  0  0  0
 12 13  1  0  0  0  0
 12 15  1  0  0  0  0
 13 14  2  0  0  0  0
 15 16  2  0  0  0  0
 15 40  1  0  0  0  0
 16 17  1  0  0  0  0
 16 19  1  0  0  0  0
 17 18  2  0  0  0  0
 17 41  1  0  0  0  0
 18 42  1  0  0  0  0
 20 21  2  0  0  0  0
 20 43  1  0  0  0  0
 21 22  1  0  0  0  0
 21 44  1  0  0  0  0
 22 23  2  0  0  0  0
 22 30  1  0  0  0  0
 23 24  1  0  0  0  0
 23 32  1  0  0  0  0
 24 25  1  0  0  0  0
 24 31  1  0  0  0  0
 25 26  2  0  0  0  0
 25 30  1  0  0  0  0
 26 27  1  0  0  0  0
 26 45  1  0  0  0  0
 27 28  2  0  0  0  0
 27 46  1  0  0  0  0
 28 29  1  0  0  0  0
 28 47  1  0  0  0  0
 29 30  2  0  0  0  0
 29 48  1  0  0  0  0
 31 49  1  0  0  0  0
 31 50  1  0  0  0  0
 31 51  1  0  0  0  0
 32 52  1  0  0  0  0
 32 53  1  0  0  0  0
 32 54  1  0  0  0  0
M  END
