
 OpenBabel10072619583D

 71 71  0  0  0  0  0  0  0  0999 V2000
    0.8858    0.0884   -0.1187 C   0  0  0  0  0  0  0  0  0  0  0  0
    2.4023    0.1380   -0.2240 C   0  0  0  0  0  0  0  0  0  0  0  0
    2.9486   -1.0635   -0.9959 C   0  0  0  0  0  0  0  0  0  0  0  0
    4.4745   -1.0180   -1.1002 C   0  0  0  0  0  0  0  0  0  0  0  0
    5.0168   -2.2247   -1.8697 C   0  0  0  0  0  0  0  0  0  0  0  0
    6.5428   -2.1827   -1.9702 C   0  0  0  0  0  0  0  0  0  0  0  0
    7.0837   -3.3870   -2.7431 C   0  0  0  0  0  0  0  0  0  0  0  0
    8.6089   -3.3399   -2.8494 C   0  0  0  0  0  0  0  0  0  0  0  0
    9.1497   -4.5351   -3.6361 C   0  0  0  0  0  0  0  0  0  0  0  0
   10.6732   -4.4757   -3.7561 C   0  0  0  0  0  0  0  0  0  0  0  0
   11.2168   -5.6728   -4.5380 C   0  0  0  0  0  0  0  0  0  0  0  0
   12.7387   -5.6016   -4.6643 C   0  0  0  0  0  0  0  0  0  0  0  0
   13.2967   -6.7949   -5.4423 C   0  0  0  0  0  0  0  0  0  0  0  0
   14.8182   -6.6959   -5.5624 C   0  0  0  0  0  0  0  0  0  0  0  0
   15.4610   -7.9214   -6.2176 C   0  0  0  0  0  0  0  0  0  0  0  0
   15.0212   -8.1858   -7.6588 C   0  0  0  0  0  0  0  0  0  0  0  0
   15.2330   -7.0074   -8.4345 O   0  0  0  0  0  0  0  0  0  0  0  0
   14.7362   -7.0232   -9.7165 C   0  0  0  0  0  0  0  0  0  0  0  0
   14.4830   -5.7551  -10.2828 C   0  0  0  0  0  0  0  0  0  0  0  0
   13.9625   -5.6712  -11.5753 C   0  0  0  0  0  0  0  0  0  0  0  0
   13.7752   -6.8357  -12.3241 C   0  0  0  0  0  0  0  0  0  0  0  0
   14.0797   -8.0893  -11.7888 C   0  0  0  0  0  0  0  0  0  0  0  0
   14.5577   -8.1811  -10.4798 C   0  0  0  0  0  0  0  0  0  0  0  0
   13.1717   -6.6973  -13.9840 S   0  0  0  0  0  0  0  0  0  0  0  0
   13.8706   -5.5985  -14.6120 O   0  0  0  0  0  0  0  0  0  0  0  0
   13.1261   -8.0143  -14.5804 O   0  0  0  0  0  0  0  0  0  0  0  0
   11.5936   -6.1817  -13.7452 N   0  0  0  0  0  0  0  0  0  0  0  0
   10.5680   -7.1744  -13.4570 C   0  0  0  0  0  0  0  0  0  0  0  0
   14.5443   -4.5941   -9.4861 N   0  0  0  0  0  0  0  0  0  0  0  0
    0.5148    0.9556    0.4368 H   0  0  0  0  0  0  0  0  0  0  0  0
    0.5582   -0.8154    0.4050 H   0  0  0  0  0  0  0  0  0  0  0  0
    0.4232    0.0975   -1.1108 H   0  0  0  0  0  0  0  0  0  0  0  0
    2.8318    0.1604    0.7844 H   0  0  0  0  0  0  0  0  0  0  0  0
    2.6976    1.0682   -0.7233 H   0  0  0  0  0  0  0  0  0  0  0  0
    2.5121   -1.0815   -2.0020 H   0  0  0  0  0  0  0  0  0  0  0  0
    2.6433   -1.9901   -0.4947 H   0  0  0  0  0  0  0  0  0  0  0  0
    4.9114   -0.9984   -0.0944 H   0  0  0  0  0  0  0  0  0  0  0  0
    4.7807   -0.0932   -1.6043 H   0  0  0  0  0  0  0  0  0  0  0  0
    4.5833   -2.2423   -2.8771 H   0  0  0  0  0  0  0  0  0  0  0  0
    4.7078   -3.1502   -1.3685 H   0  0  0  0  0  0  0  0  0  0  0  0
    6.9780   -2.1666   -0.9634 H   0  0  0  0  0  0  0  0  0  0  0  0
    6.8521   -1.2574   -2.4712 H   0  0  0  0  0  0  0  0  0  0  0  0
    6.6466   -3.4046   -3.7489 H   0  0  0  0  0  0  0  0  0  0  0  0
    6.7781   -4.3135   -2.2418 H   0  0  0  0  0  0  0  0  0  0  0  0
    9.0464   -3.3340   -1.8436 H   0  0  0  0  0  0  0  0  0  0  0  0
    8.9150   -2.4083   -3.3411 H   0  0  0  0  0  0  0  0  0  0  0  0
    8.7028   -4.5494   -4.6379 H   0  0  0  0  0  0  0  0  0  0  0  0
    8.8559   -5.4664   -3.1365 H   0  0  0  0  0  0  0  0  0  0  0  0
   11.1206   -4.4574   -2.7547 H   0  0  0  0  0  0  0  0  0  0  0  0
   10.9666   -3.5449   -4.2572 H   0  0  0  0  0  0  0  0  0  0  0  0
   10.7658   -5.6955   -5.5377 H   0  0  0  0  0  0  0  0  0  0  0  0
   10.9311   -6.6023   -4.0305 H   0  0  0  0  0  0  0  0  0  0  0  0
   13.1890   -5.5730   -3.6643 H   0  0  0  0  0  0  0  0  0  0  0  0
   13.0206   -4.6714   -5.1726 H   0  0  0  0  0  0  0  0  0  0  0  0
   12.8410   -6.8199   -6.4388 H   0  0  0  0  0  0  0  0  0  0  0  0
   13.0247   -7.7278   -4.9339 H   0  0  0  0  0  0  0  0  0  0  0  0
   15.2520   -6.5802   -4.5610 H   0  0  0  0  0  0  0  0  0  0  0  0
   15.0857   -5.7908   -6.1208 H   0  0  0  0  0  0  0  0  0  0  0  0
   15.2643   -8.8122   -5.6095 H   0  0  0  0  0  0  0  0  0  0  0  0
   16.5470   -7.7626   -6.2099 H   0  0  0  0  0  0  0  0  0  0  0  0
   13.9646   -8.4772   -7.6854 H   0  0  0  0  0  0  0  0  0  0  0  0
   15.6326   -9.0062   -8.0514 H   0  0  0  0  0  0  0  0  0  0  0  0
   13.7043   -4.7041  -11.9998 H   0  0  0  0  0  0  0  0  0  0  0  0
   13.9531   -8.9936  -12.3800 H   0  0  0  0  0  0  0  0  0  0  0  0
   14.8003   -9.1633  -10.0882 H   0  0  0  0  0  0  0  0  0  0  0  0
   11.3477   -5.3673  -14.3043 H   0  0  0  0  0  0  0  0  0  0  0  0
   10.9214   -7.9278  -12.7482 H   0  0  0  0  0  0  0  0  0  0  0  0
   10.2425   -7.6581  -14.3817 H   0  0  0  0  0  0  0  0  0  0  0  0
    9.7028   -6.6734  -13.0131 H   0  0  0  0  0  0  0  0  0  0  0  0
   15.1436   -4.7501   -8.6755 H   0  0  0  0  0  0  0  0  0  0  0  0
   14.7951   -3.7595  -10.0041 H   0  0  0  0  0  0  0  0  0  0  0  0
  1  2  1  0  0  0  0
  1 30  1  0  0  0  0
  1 31  1  0  0  0  0
  1 32  1  0  0  0  0
  2  3  1  0  0  0  0
  2 33  1  0  0  0  0
  2 34  1  0  0  0  0
  3  4  1  0  0  0  0
  3 35  1  0  0  0  0
  3 36  1  0  0  0  0
  4  5  1  0  0  0  0
  4 37  1  0  0  0  0
  4 38  1  0  0  0  0
  5  6  1  0  0  0  0
  5 39  1  0  0  0  0
  5 40  1  0  0  0  0
  6  7  1  0  0  0  0
  6 41  1  0  0  0  0
  6 42  1  0  0  0  0
  7  8  1  0  0  0  0
  7 43  1  0  0  0  0
  7 44  1  0  0  0  0
  8  9  1  0  0  0  0
  8 45  1  0  0  0  0
  8 46  1  0  0  0  0
  9 10  1  0  0  0  0
  9 47  1  0  0  0  0
  9 48  1  0  0  0  0
 10 11  1  0  0  0  0
 10 49  1  0  0  0  0
 10 50  1  0  0  0  0
 11 12  1  0  0  0  0
 11 51  1  0  0  0  0
 11 52  1  0  0  0  0
 12 13  1  0  0  0  0
 12 53  1  0  0  0  0
 12 54  1  0  0  0  0
 13 14  1  0  0  0  0
 13 55  1  0  0  0  0
 13 56  1  0  0  0  0
 14 15  1  0  0  0  0
 14 57  1  0  0  0  0
 14 58  1  0  0  0  0
 15 16  1  0  0  0  0
 15 59  1  0  0  0  0
 15 60  1  0  0  0  0
 16 17  1  0  0  0  0
 16 61  1  0  0  0  0
 16 62  1  0  0  0  0
 17 18  1  0  0  0  0
 18 19  2  0  0  0  0
 18 23  1  0  0  0  0
 19 20  1  0  0  0  0
 19 29  1  0  0  0  0
 20 21  2  0  0  0  0
 20 63  1  0  0  0  0
 21 22  1  0  0  0  0
 21 24  1  0  0  0  0
 22 23  2  0  0  0  0
 22 64  1  0  0  0  0
 23 65  1  0  0  0  0
 24 25  2  0  0  0  0
 24 26  2  0  0  0  0
 24 27  1  0  0  0  0
 27 28  1  0  0  0  0
 27 66  1  0  0  0  0
 28 67  1  0  0  0  0
 28 68  1  0  0  0  0
 28 69  1  0  0  0  0
 29 70  1  0  0  0  0
 29 71  1  0  0  0  0
M  END
