
 OpenBabel10072619443D

 73 79  0  0  0  0  0  0  0  0999 V2000
    3.8907    0.0957   -3.9958 C   0  0  0  0  0  0  0  0  0  0  0  0
    3.4091    0.1661   -5.3069 C   0  0  0  0  0  0  0  0  0  0  0  0
    3.6955    1.2802   -6.0919 C   0  0  0  0  0  0  0  0  0  0  0  0
    4.4659    2.3186   -5.5782 C   0  0  0  0  0  0  0  0  0  0  0  0
    4.9387    2.2541   -4.2649 C   0  0  0  0  0  0  0  0  0  0  0  0
    4.6409    1.1506   -3.4598 C   0  0  0  0  0  0  0  0  0  0  0  0
    5.0917    1.0221   -2.1307 N   0  0  0  0  0  0  0  0  0  0  0  0
    5.5767    2.0370   -1.3268 C   0  0  0  0  0  0  0  0  0  0  0  0
    5.5049    3.2368   -1.5733 O   0  0  0  0  0  0  0  0  0  0  0  0
    6.1744    1.5210   -0.1979 N   0  0  0  0  0  0  0  0  0  0  0  0
    6.8290    2.3080    0.7254 C   0  0  0  0  0  0  0  0  0  0  0  0
    7.8257    1.8677    1.4668 N   0  0  0  0  0  0  0  0  0  0  0  0
    8.2835    2.9163    2.2412 N   0  0  0  0  0  0  0  0  0  0  0  0
    7.5242    3.9733    2.0180 C   0  0  0  0  0  0  0  0  0  0  0  0
    6.6002    3.6177    1.0655 N   0  0  0  0  0  0  0  0  0  0  0  0
    5.5459    4.4011    0.7422 N   0  0  0  0  0  0  0  0  0  0  0  0
    5.5207    5.6824    1.2296 C   0  0  0  0  0  0  0  0  0  0  0  0
    4.7172    6.5231    0.8610 O   0  0  0  0  0  0  0  0  0  0  0  0
    6.6253    6.0431    2.2336 C   0  0  0  0  0  0  0  0  0  0  0  0
    7.5642    5.2059    2.5850 N   0  0  0  0  0  0  0  0  0  0  0  0
    6.5961    7.4385    2.8344 C   0  0  0  0  0  0  0  0  0  0  0  0
    6.3064    8.4938    1.7797 C   0  0  0  0  0  0  0  0  0  0  0  0
    7.1265    8.5941    0.7649 N   0  0  0  0  0  0  0  0  0  0  0  0
    6.8367    9.5349   -0.1745 C   0  0  0  0  0  0  0  0  0  0  0  0
    7.4135    9.7860   -1.3369 N   0  0  0  0  0  0  0  0  0  0  0  0
    6.7120   10.7946   -1.9803 N   0  0  0  0  0  0  0  0  0  0  0  0
    5.7534   11.2023   -1.1746 C   0  0  0  0  0  0  0  0  0  0  0  0
    5.7915   10.4152   -0.0509 N   0  0  0  0  0  0  0  0  0  0  0  0
    4.8615   10.3100    0.9171 N   0  0  0  0  0  0  0  0  0  0  0  0
    5.0801    9.4224    1.9358 C   0  0  0  0  0  0  0  0  0  0  0  0
    4.3745    9.4114    2.9285 O   0  0  0  0  0  0  0  0  0  0  0  0
    4.8806   12.2326   -1.4694 N   0  0  0  0  0  0  0  0  0  0  0  0
    4.3913   13.0552   -0.4762 C   0  0  0  0  0  0  0  0  0  0  0  0
    4.6631   12.9188    0.7120 O   0  0  0  0  0  0  0  0  0  0  0  0
    3.5627   14.0335   -0.9889 N   0  0  0  0  0  0  0  0  0  0  0  0
    3.1147   15.1775   -0.2934 C   0  0  0  0  0  0  0  0  0  0  0  0
    3.7555   15.6787    0.8458 C   0  0  0  0  0  0  0  0  0  0  0  0
    3.2678   16.8214    1.4901 C   0  0  0  0  0  0  0  0  0  0  0  0
    2.1371   17.4661    0.9973 C   0  0  0  0  0  0  0  0  0  0  0  0
    1.5054   16.9928   -0.1496 C   0  0  0  0  0  0  0  0  0  0  0  0
    1.9990   15.8558   -0.7987 C   0  0  0  0  0  0  0  0  0  0  0  0
    1.5144   18.8504    1.8058 Cl  0  0  0  0  0  0  0  0  0  0  0  0
    5.7459    7.4307    4.0865 C   0  0  0  0  0  0  0  0  0  0  0  0
    4.9306    6.5228    4.2711 O   0  0  0  0  0  0  0  0  0  0  0  0
    5.9095    8.4855    5.1506 C   0  0  0  0  0  0  0  0  0  0  0  0
    6.7399    9.6140    5.0496 C   0  0  0  0  0  0  0  0  0  0  0  0
    6.7529   10.5889    6.0539 C   0  0  0  0  0  0  0  0  0  0  0  0
    5.9323   10.4355    7.1656 C   0  0  0  0  0  0  0  0  0  0  0  0
    5.1151    9.3229    7.2993 C   0  0  0  0  0  0  0  0  0  0  0  0
    5.1038    8.3521    6.2960 C   0  0  0  0  0  0  0  0  0  0  0  0
    5.8858   11.3780    8.1486 O   0  0  0  0  0  0  0  0  0  0  0  0
    7.5332    9.8126    3.9538 O   0  0  0  0  0  0  0  0  0  0  0  0
    3.0982    1.3642   -7.7032 Cl  0  0  0  0  0  0  0  0  0  0  0  0
    3.6519   -0.7822   -3.3993 H   0  0  0  0  0  0  0  0  0  0  0  0
    2.8045   -0.6445   -5.7057 H   0  0  0  0  0  0  0  0  0  0  0  0
    4.6992    3.1866   -6.1864 H   0  0  0  0  0  0  0  0  0  0  0  0
    5.5489    3.0763   -3.9024 H   0  0  0  0  0  0  0  0  0  0  0  0
    4.8682    0.1579   -1.6551 H   0  0  0  0  0  0  0  0  0  0  0  0
    6.5334    0.5779   -0.2498 H   0  0  0  0  0  0  0  0  0  0  0  0
    5.1423    4.2439   -0.1791 H   0  0  0  0  0  0  0  0  0  0  0  0
    7.6337    7.5995    3.1602 H   0  0  0  0  0  0  0  0  0  0  0  0
    4.3471   11.1562    1.1451 H   0  0  0  0  0  0  0  0  0  0  0  0
    5.0395   12.6524   -2.3759 H   0  0  0  0  0  0  0  0  0  0  0  0
    3.0469   13.7760   -1.8202 H   0  0  0  0  0  0  0  0  0  0  0  0
    4.6468   15.2065    1.2510 H   0  0  0  0  0  0  0  0  0  0  0  0
    3.7741   17.1967    2.3758 H   0  0  0  0  0  0  0  0  0  0  0  0
    0.6255   17.4985   -0.5384 H   0  0  0  0  0  0  0  0  0  0  0  0
    1.4845   15.5014   -1.6879 H   0  0  0  0  0  0  0  0  0  0  0  0
    7.3813   11.4675    5.9584 H   0  0  0  0  0  0  0  0  0  0  0  0
    4.4704    9.2203    8.1683 H   0  0  0  0  0  0  0  0  0  0  0  0
    4.4374    7.4980    6.4079 H   0  0  0  0  0  0  0  0  0  0  0  0
    6.4191   12.1455    7.8847 H   0  0  0  0  0  0  0  0  0  0  0  0
    8.1202   10.5739    4.1093 H   0  0  0  0  0  0  0  0  0  0  0  0
  1  2  2  0  0  0  0
  1  6  1  0  0  0  0
  1 54  1  0  0  0  0
  2  3  1  0  0  0  0
  2 55  1  0  0  0  0
  3  4  2  0  0  0  0
  3 53  1  0  0  0  0
  4  5  1  0  0  0  0
  4 56  1  0  0  0  0
  5  6  2  0  0  0  0
  5 57  1  0  0  0  0
  6  7  1  0  0  0  0
  7  8  1  0  0  0  0
  7 58  1  0  0  0  0
  8  9  2  0  0  0  0
  8 10  1  0  0  0  0
 10 11  1  0  0  0  0
 10 59  1  0  0  0  0
 11 12  2  0  0  0  0
 11 15  1  0  0  0  0
 12 13  1  0  0  0  0
 13 14  2  0  0  0  0
 14 15  1  0  0  0  0
 14 20  1  0  0  0  0
 15 16  1  0  0  0  0
 16 17  1  0  0  0  0
 16 60  1  0  0  0  0
 17 18  2  0  0  0  0
 17 19  1  0  0  0  0
 19 20  2  0  0  0  0
 19 21  1  0  0  0  0
 21 22  1  0  0  0  0
 21 43  1  0  0  0  0
 21 61  1  0  0  0  0
 22 23  2  0  0  0  0
 22 30  1  0  0  0  0
 23 24  1  0  0  0  0
 24 25  2  0  0  0  0
 24 28  1  0  0  0  0
 25 26  1  0  0  0  0
 26 27  2  0  0  0  0
 27 28  1  0  0  0  0
 27 32  1  0  0  0  0
 28 29  1  0  0  0  0
 29 30  1  0  0  0  0
 29 62  1  0  0  0  0
 30 31  2  0  0  0  0
 32 33  1  0  0  0  0
 32 63  1  0  0  0  0
 33 34  2  0  0  0  0
 33 35  1  0  0  0  0
 35 36  1  0  0  0  0
 35 64  1  0  0  0  0
 36 37  2  0  0  0  0
 36 41  1  0  0  0  0
 37 38  1  0  0  0  0
 37 65  1  0  0  0  0
 38 39  2  0  0  0  0
 38 66  1  0  0  0  0
 39 40  1  0  0  0  0
 39 42  1  0  0  0  0
 40 41  2  0  0  0  0
 40 67  1  0  0  0  0
 41 68  1  0  0  0  0
 43 44  2  0  0  0  0
 43 45  1  0  0  0  0
 45 46  2  0  0  0  0
 45 50  1  0  0  0  0
 46 47  1  0  0  0  0
 46 52  1  0  0  0  0
 47 48  2  0  0  0  0
 47 69  1  0  0  0  0
 48 49  1  0  0  0  0
 48 51  1  0  0  0  0
 49 50  2  0  0  0  0
 49 70  1  0  0  0  0
 50 71  1  0  0  0  0
 51 72  1  0  0  0  0
 52 73  1  0  0  0  0
M  END
