
 OpenBabel10072619593D

 56 57  0  0  1  0  0  0  0  0999 V2000
   11.2390    1.7276    0.3723 C   0  0  0  0  0  0  0  0  0  0  0  0
   10.7688    0.4338   -0.2337 C   0  0  0  0  0  0  0  0  0  0  0  0
   10.6874    0.2687   -1.4466 O   0  0  0  0  0  0  0  0  0  0  0  0
   10.3978   -0.5243    0.6899 N   0  0  0  0  0  0  0  0  0  0  0  0
   10.0209   -1.8751    0.2378 C   0  0  2  0  0  0  0  0  0  0  0  0
    9.1149   -2.5669    1.2720 C   0  0  2  0  0  0  0  0  0  0  0  0
    8.7342   -3.9971    0.8229 C   0  0  1  0  0  0  0  0  0  0  0  0
    9.9936   -4.7658    0.3527 C   0  0  2  0  0  0  0  0  0  0  0  0
   10.7419   -4.0125   -0.6137 O   0  0  0  0  0  0  0  0  0  0  0  0
   11.2264   -2.7923   -0.0666 C   0  0  1  0  0  0  0  0  0  0  0  0
   12.1058   -2.2234   -1.0474 N   0  0  0  0  0  0  0  0  0  0  0  0
   13.4355   -2.4790   -1.0606 C   0  0  0  0  0  0  0  0  0  0  0  0
   14.0376   -3.1468   -0.2340 O   0  0  0  0  0  0  0  0  0  0  0  0
   14.0695   -1.8785   -2.0969 N   0  0  0  0  0  0  0  0  0  0  0  0
    9.6279   -6.1019   -0.3080 C   0  0  0  0  0  0  0  0  0  0  0  0
    8.8638   -5.8704   -1.4918 O   0  0  0  0  0  0  0  0  0  0  0  0
    8.1453   -4.7801    1.8736 O   0  0  0  0  0  0  0  0  0  0  0  0
    6.9470   -4.2887    2.4795 C   0  0  1  0  0  0  0  0  0  0  0  0
    5.7858   -4.1538    1.4705 C   0  0  2  0  0  0  0  0  0  0  0  0
    4.5195   -3.7271    2.2079 C   0  0  2  0  0  0  0  0  0  0  0  0
    4.2056   -4.6707    3.3748 C   0  0  1  0  0  0  0  0  0  0  0  0
    5.4457   -4.8472    4.2621 C   0  0  2  0  0  0  0  0  0  0  0  0
    6.5936   -5.2452    3.4905 O   0  0  0  0  0  0  0  0  0  0  0  0
    5.2291   -5.9311    5.3259 C   0  0  0  0  0  0  0  0  0  0  0  0
    5.1214   -7.2187    4.7164 O   0  0  0  0  0  0  0  0  0  0  0  0
    3.1263   -4.1074    4.1312 O   0  0  0  0  0  0  0  0  0  0  0  0
    3.3981   -3.7219    1.3080 O   0  0  0  0  0  0  0  0  0  0  0  0
    5.5140   -5.4082    0.8101 O   0  0  0  0  0  0  0  0  0  0  0  0
    7.9229   -1.7756    1.4442 O   0  0  0  0  0  0  0  0  0  0  0  0
   12.0052    2.1684   -0.2721 H   0  0  0  0  0  0  0  0  0  0  0  0
   11.6744    1.5663    1.3618 H   0  0  0  0  0  0  0  0  0  0  0  0
   10.3913    2.4126    0.4559 H   0  0  0  0  0  0  0  0  0  0  0  0
   10.7830   -0.4285    1.6228 H   0  0  0  0  0  0  0  0  0  0  0  0
    9.4324   -1.7446   -0.6818 H   0  0  0  0  0  0  0  0  0  0  0  0
    9.6023   -2.6020    2.2544 H   0  0  0  0  0  0  0  0  0  0  0  0
    8.0264   -3.9277   -0.0108 H   0  0  0  0  0  0  0  0  0  0  0  0
   10.6383   -4.9910    1.2122 H   0  0  0  0  0  0  0  0  0  0  0  0
   11.7990   -2.9895    0.8498 H   0  0  0  0  0  0  0  0  0  0  0  0
   11.6896   -1.8379   -1.8843 H   0  0  0  0  0  0  0  0  0  0  0  0
   13.7124   -0.9889   -2.4148 H   0  0  0  0  0  0  0  0  0  0  0  0
   15.0776   -1.9588   -2.0691 H   0  0  0  0  0  0  0  0  0  0  0  0
   10.5324   -6.6437   -0.6052 H   0  0  0  0  0  0  0  0  0  0  0  0
    9.0446   -6.7431    0.3586 H   0  0  0  0  0  0  0  0  0  0  0  0
    9.4382   -5.3289   -2.0678 H   0  0  0  0  0  0  0  0  0  0  0  0
    7.1564   -3.3469    2.9955 H   0  0  0  0  0  0  0  0  0  0  0  0
    6.0074   -3.4391    0.6735 H   0  0  0  0  0  0  0  0  0  0  0  0
    4.6259   -2.7012    2.5810 H   0  0  0  0  0  0  0  0  0  0  0  0
    3.8606   -5.6356    2.9844 H   0  0  0  0  0  0  0  0  0  0  0  0
    5.6704   -3.9078    4.7836 H   0  0  0  0  0  0  0  0  0  0  0  0
    6.0905   -5.9709    6.0010 H   0  0  0  0  0  0  0  0  0  0  0  0
    4.3311   -5.7481    5.9222 H   0  0  0  0  0  0  0  0  0  0  0  0
    5.8608   -7.2668    4.0793 H   0  0  0  0  0  0  0  0  0  0  0  0
    2.4338   -3.8979    3.4722 H   0  0  0  0  0  0  0  0  0  0  0  0
    3.5342   -4.5017    0.7284 H   0  0  0  0  0  0  0  0  0  0  0  0
    6.3828   -5.8293    0.6520 H   0  0  0  0  0  0  0  0  0  0  0  0
    8.1961   -0.8384    1.3920 H   0  0  0  0  0  0  0  0  0  0  0  0
  1  2  1  0  0  0  0
  1 30  1  0  0  0  0
  1 31  1  0  0  0  0
  1 32  1  0  0  0  0
  2  3  2  0  0  0  0
  2  4  1  0  0  0  0
  4  5  1  0  0  0  0
  4 33  1  0  0  0  0
  5  6  1  0  0  0  0
  5 10  1  0  0  0  0
  5 34  1  6  0  0  0
  6  7  1  0  0  0  0
  6 29  1  0  0  0  0
  6 35  1  1  0  0  0
  7  8  1  0  0  0  0
  7 17  1  0  0  0  0
  7 36  1  6  0  0  0
  8  9  1  0  0  0  0
  8 15  1  0  0  0  0
  8 37  1  1  0  0  0
  9 10  1  0  0  0  0
 10 11  1  0  0  0  0
 10 38  1  1  0  0  0
 11 12  1  0  0  0  0
 11 39  1  0  0  0  0
 12 13  2  0  0  0  0
 12 14  1  0  0  0  0
 14 40  1  0  0  0  0
 14 41  1  0  0  0  0
 15 16  1  0  0  0  0
 15 42  1  0  0  0  0
 15 43  1  0  0  0  0
 16 44  1  0  0  0  0
 18 19  1  0  0  0  0
 18 23  1  0  0  0  0
 18 17  1  0  0  0  0
 18 45  1  1  0  0  0
 19 20  1  0  0  0  0
 19 28  1  0  0  0  0
 19 46  1  6  0  0  0
 20 21  1  0  0  0  0
 20 27  1  0  0  0  0
 20 47  1  1  0  0  0
 21 22  1  0  0  0  0
 21 26  1  0  0  0  0
 21 48  1  6  0  0  0
 22 23  1  0  0  0  0
 22 24  1  0  0  0  0
 22 49  1  1  0  0  0
 24 25  1  0  0  0  0
 24 50  1  0  0  0  0
 24 51  1  0  0  0  0
 25 52  1  0  0  0  0
 26 53  1  0  0  0  0
 27 54  1  0  0  0  0
 28 55  1  0  0  0  0
 29 56  1  0  0  0  0
M  END
