
 OpenBabel10072620003D

 34 36  0  0  0  0  0  0  0  0999 V2000
    0.9383   -0.2949    0.1941 C   0  0  0  0  0  0  0  0  0  0  0  0
    2.4212   -0.1794    0.0467 C   0  0  0  0  0  0  0  0  0  0  0  0
    3.0589    1.0494    0.0593 C   0  0  0  0  0  0  0  0  0  0  0  0
    4.4533    1.1049   -0.1017 C   0  0  0  0  0  0  0  0  0  0  0  0
    5.1259   -0.1155   -0.2847 C   0  0  0  0  0  0  0  0  0  0  0  0
    6.5045   -0.1111   -0.4463 C   0  0  0  0  0  0  0  0  0  0  0  0
    7.2428    1.0720   -0.4197 C   0  0  0  0  0  0  0  0  0  0  0  0
    6.5900    2.2849   -0.2276 C   0  0  0  0  0  0  0  0  0  0  0  0
    5.2017    2.3065   -0.0655 C   0  0  0  0  0  0  0  0  0  0  0  0
    4.5288    3.5692    0.0956 N   0  0  0  0  0  0  0  0  0  0  0  0
    4.3004    4.4284   -1.3598 S   0  0  0  0  0  0  0  0  0  0  0  0
    5.5808    4.9705   -1.7617 O   0  0  0  0  0  0  0  0  0  0  0  0
    3.4659    3.6551   -2.2549 O   0  0  0  0  0  0  0  0  0  0  0  0
    3.3465    5.8401   -0.9801 C   0  0  0  0  0  0  0  0  0  0  0  0
    2.5373    6.5431   -1.8509 C   0  0  0  0  0  0  0  0  0  0  0  0
    1.9997    7.5479   -1.1009 N   0  0  0  0  0  0  0  0  0  0  0  0
    2.4921    7.4382    0.1697 C   0  0  0  0  0  0  0  0  0  0  0  0
    3.3109    6.4127    0.2846 N   0  0  0  0  0  0  0  0  0  0  0  0
    1.0718    8.5533   -1.5582 C   0  0  0  0  0  0  0  0  0  0  0  0
    4.4677   -1.2829   -0.2978 N   0  0  0  0  0  0  0  0  0  0  0  0
    3.1104   -1.3225   -0.1336 N   0  0  0  0  0  0  0  0  0  0  0  0
    0.5121    0.6047    0.6498 H   0  0  0  0  0  0  0  0  0  0  0  0
    0.6877   -1.1430    0.8399 H   0  0  0  0  0  0  0  0  0  0  0  0
    0.4787   -0.4491   -0.7872 H   0  0  0  0  0  0  0  0  0  0  0  0
    2.4827    1.9592    0.1994 H   0  0  0  0  0  0  0  0  0  0  0  0
    7.0115   -1.0612   -0.5979 H   0  0  0  0  0  0  0  0  0  0  0  0
    8.3216    1.0426   -0.5545 H   0  0  0  0  0  0  0  0  0  0  0  0
    7.1720    3.2030   -0.2219 H   0  0  0  0  0  0  0  0  0  0  0  0
    4.9863    4.2028    0.7547 H   0  0  0  0  0  0  0  0  0  0  0  0
    2.3126    6.3949   -2.8978 H   0  0  0  0  0  0  0  0  0  0  0  0
    2.2226    8.1281    0.9605 H   0  0  0  0  0  0  0  0  0  0  0  0
    1.0826    8.5884   -2.6512 H   0  0  0  0  0  0  0  0  0  0  0  0
    1.3738    9.5238   -1.1554 H   0  0  0  0  0  0  0  0  0  0  0  0
    0.0751    8.2834   -1.1997 H   0  0  0  0  0  0  0  0  0  0  0  0
  1  2  1  0  0  0  0
  1 22  1  0  0  0  0
  1 23  1  0  0  0  0
  1 24  1  0  0  0  0
  2  3  2  0  0  0  0
  2 21  1  0  0  0  0
  3  4  1  0  0  0  0
  3 25  1  0  0  0  0
  4  5  2  0  0  0  0
  4  9  1  0  0  0  0
  5  6  1  0  0  0  0
  5 20  1  0  0  0  0
  6  7  2  0  0  0  0
  6 26  1  0  0  0  0
  7  8  1  0  0  0  0
  7 27  1  0  0  0  0
  8  9  2  0  0  0  0
  8 28  1  0  0  0  0
  9 10  1  0  0  0  0
 10 11  1  0  0  0  0
 10 29  1  0  0  0  0
 11 12  2  0  0  0  0
 11 13  2  0  0  0  0
 11 14  1  0  0  0  0
 14 15  2  0  0  0  0
 14 18  1  0  0  0  0
 15 16  1  0  0  0  0
 15 30  1  0  0  0  0
 16 17  1  0  0  0  0
 16 19  1  0  0  0  0
 17 18  2  0  0  0  0
 17 31  1  0  0  0  0
 19 32  1  0  0  0  0
 19 33  1  0  0  0  0
 19 34  1  0  0  0  0
 20 21  2  0  0  0  0
M  END
