
 OpenBabel10072619553D

 48 47  0  0  0  0  0  0  0  0999 V2000
    5.0511   -0.0549    4.5430 C   0  0  0  0  0  0  0  0  0  0  0  0
    5.2527   -0.0111    3.0368 C   0  0  0  0  0  0  0  0  0  0  0  0
    5.8571    1.3204    2.5919 C   0  0  0  0  0  0  0  0  0  0  0  0
    6.0509    1.3631    1.0756 C   0  0  0  0  0  0  0  0  0  0  0  0
    6.6587    2.6927    0.6285 C   0  0  0  0  0  0  0  0  0  0  0  0
    6.8503    2.7316   -0.8855 C   0  0  0  0  0  0  0  0  0  0  0  0
    7.4056    3.9918   -1.3189 N   0  0  0  0  0  0  0  0  0  0  0  0
    8.7513    4.2583   -1.3157 C   0  0  0  0  0  0  0  0  0  0  0  0
    9.5865    3.4239   -0.9769 O   0  0  0  0  0  0  0  0  0  0  0  0
    9.0039    5.5460   -1.7281 N   0  0  0  0  0  0  0  0  0  0  0  0
   10.2283    5.7875   -1.8077 N   0  0  0  0  0  0  0  0  0  0  0  0
   10.4807    7.0672   -2.2448 C   0  0  0  0  0  0  0  0  0  0  0  0
    9.6456    7.9384   -2.4717 O   0  0  0  0  0  0  0  0  0  0  0  0
   11.8267    7.2796   -2.4050 N   0  0  0  0  0  0  0  0  0  0  0  0
   12.3818    8.5499   -2.8082 C   0  0  0  0  0  0  0  0  0  0  0  0
   12.5716    9.4843   -1.6160 C   0  0  0  0  0  0  0  0  0  0  0  0
   13.1791   10.8184   -2.0495 C   0  0  0  0  0  0  0  0  0  0  0  0
   13.3711   11.7572   -0.8577 C   0  0  0  0  0  0  0  0  0  0  0  0
   13.9749   13.0917   -1.2941 C   0  0  0  0  0  0  0  0  0  0  0  0
   14.1750   14.0253   -0.1110 C   0  0  0  0  0  0  0  0  0  0  0  0
    4.6188   -1.0156    4.8400 H   0  0  0  0  0  0  0  0  0  0  0  0
    4.3720    0.7388    4.8705 H   0  0  0  0  0  0  0  0  0  0  0  0
    6.0026    0.0674    5.0702 H   0  0  0  0  0  0  0  0  0  0  0  0
    4.2878   -0.1667    2.5404 H   0  0  0  0  0  0  0  0  0  0  0  0
    5.9087   -0.8369    2.7372 H   0  0  0  0  0  0  0  0  0  0  0  0
    6.8226    1.4700    3.0903 H   0  0  0  0  0  0  0  0  0  0  0  0
    5.2020    2.1437    2.9021 H   0  0  0  0  0  0  0  0  0  0  0  0
    5.0850    1.2151    0.5774 H   0  0  0  0  0  0  0  0  0  0  0  0
    6.7042    0.5384    0.7658 H   0  0  0  0  0  0  0  0  0  0  0  0
    7.6220    2.8467    1.1303 H   0  0  0  0  0  0  0  0  0  0  0  0
    6.0087    3.5211    0.9369 H   0  0  0  0  0  0  0  0  0  0  0  0
    5.8900    2.6111   -1.3978 H   0  0  0  0  0  0  0  0  0  0  0  0
    7.5135    1.9208   -1.2074 H   0  0  0  0  0  0  0  0  0  0  0  0
    6.7989    4.7656   -1.5534 H   0  0  0  0  0  0  0  0  0  0  0  0
   12.4333    6.5190   -2.1306 H   0  0  0  0  0  0  0  0  0  0  0  0
   11.7192    9.0083   -3.5509 H   0  0  0  0  0  0  0  0  0  0  0  0
   13.3427    8.3414   -3.2902 H   0  0  0  0  0  0  0  0  0  0  0  0
   13.2211    9.0036   -0.8737 H   0  0  0  0  0  0  0  0  0  0  0  0
   11.6077    9.6594   -1.1224 H   0  0  0  0  0  0  0  0  0  0  0  0
   12.5264   11.2952   -2.7909 H   0  0  0  0  0  0  0  0  0  0  0  0
   14.1457   10.6406   -2.5366 H   0  0  0  0  0  0  0  0  0  0  0  0
   14.0257   11.2818   -0.1170 H   0  0  0  0  0  0  0  0  0  0  0  0
   12.4049   11.9338   -0.3695 H   0  0  0  0  0  0  0  0  0  0  0  0
   13.3193   13.5755   -2.0277 H   0  0  0  0  0  0  0  0  0  0  0  0
   14.9404   12.9212   -1.7846 H   0  0  0  0  0  0  0  0  0  0  0  0
   13.2229   14.2410    0.3842 H   0  0  0  0  0  0  0  0  0  0  0  0
   14.6071   14.9737   -0.4452 H   0  0  0  0  0  0  0  0  0  0  0  0
   14.8536   13.5838    0.6258 H   0  0  0  0  0  0  0  0  0  0  0  0
  1  2  1  0  0  0  0
  1 21  1  0  0  0  0
  1 22  1  0  0  0  0
  1 23  1  0  0  0  0
  2  3  1  0  0  0  0
  2 24  1  0  0  0  0
  2 25  1  0  0  0  0
  3  4  1  0  0  0  0
  3 26  1  0  0  0  0
  3 27  1  0  0  0  0
  4  5  1  0  0  0  0
  4 28  1  0  0  0  0
  4 29  1  0  0  0  0
  5  6  1  0  0  0  0
  5 30  1  0  0  0  0
  5 31  1  0  0  0  0
  6  7  1  0  0  0  0
  6 32  1  0  0  0  0
  6 33  1  0  0  0  0
  7  8  1  0  0  0  0
  7 34  1  0  0  0  0
  8  9  2  0  0  0  0
  8 10  1  0  0  0  0
 10 11  2  0  0  0  0
 11 12  1  0  0  0  0
 12 13  2  0  0  0  0
 12 14  1  0  0  0  0
 14 15  1  0  0  0  0
 14 35  1  0  0  0  0
 15 16  1  0  0  0  0
 15 36  1  0  0  0  0
 15 37  1  0  0  0  0
 16 17  1  0  0  0  0
 16 38  1  0  0  0  0
 16 39  1  0  0  0  0
 17 18  1  0  0  0  0
 17 40  1  0  0  0  0
 17 41  1  0  0  0  0
 18 19  1  0  0  0  0
 18 42  1  0  0  0  0
 18 43  1  0  0  0  0
 19 20  1  0  0  0  0
 19 44  1  0  0  0  0
 19 45  1  0  0  0  0
 20 46  1  0  0  0  0
 20 47  1  0  0  0  0
 20 48  1  0  0  0  0
M  END
