
 OpenBabel10072620223D

 42 45  0  0  0  0  0  0  0  0999 V2000
   -3.0550    1.2366   -0.3245 C   0  0  0  0  0  0  0  0  0  0  0  0
   -3.3858   -0.0090    0.5270 C   0  0  0  0  0  0  0  0  0  0  0  0
   -2.4365   -1.1904    0.2388 C   0  0  0  0  0  0  0  0  0  0  0  0
   -1.0544   -0.6761    0.1257 C   0  0  0  0  0  0  0  0  0  0  0  0
   -0.6497    0.6290   -0.0455 C   0  0  0  0  0  0  0  0  0  0  0  0
   -1.6190    1.7550   -0.0888 C   0  0  0  0  0  0  0  0  0  0  0  0
    0.7655    0.5898   -0.1333 C   0  0  0  0  0  0  0  0  0  0  0  0
    1.1104   -0.7571   -0.0144 C   0  0  0  0  0  0  0  0  0  0  0  0
   -0.0045   -1.5286    0.1460 O   0  0  0  0  0  0  0  0  0  0  0  0
    2.4179   -1.2345   -0.0628 C   0  0  0  0  0  0  0  0  0  0  0  0
    3.4257   -0.2799   -0.2357 C   0  0  0  0  0  0  0  0  0  0  0  0
    3.1196    1.0796   -0.3367 C   0  0  0  0  0  0  0  0  0  0  0  0
    1.7931    1.5356   -0.3063 C   0  0  0  0  0  0  0  0  0  0  0  0
    4.1934    2.0081   -0.5520 N   0  0  0  0  0  0  0  0  0  0  0  0
    4.4345    2.4140   -2.1931 S   0  0  0  0  0  0  0  0  0  0  0  0
    4.2104    1.2708   -3.0471 O   0  0  0  0  0  0  0  0  0  0  0  0
    3.7565    3.6777   -2.3892 O   0  0  0  0  0  0  0  0  0  0  0  0
    6.1850    2.7210   -2.2048 C   0  0  0  0  0  0  0  0  0  0  0  0
    6.6725    3.9949   -2.5155 C   0  0  0  0  0  0  0  0  0  0  0  0
    8.0502    4.2184   -2.5445 C   0  0  0  0  0  0  0  0  0  0  0  0
    8.9358    3.1739   -2.2653 C   0  0  0  0  0  0  0  0  0  0  0  0
    8.4346    1.9000   -1.9567 C   0  0  0  0  0  0  0  0  0  0  0  0
    7.0561    1.6622   -1.9271 C   0  0  0  0  0  0  0  0  0  0  0  0
    9.3670    0.8058   -1.6599 N   0  3  0  0  0  0  0  0  0  0  0  0
   10.5719    1.0039   -1.8687 O   0  0  0  0  0  0  0  0  0  0  0  0
    8.8920   -0.2470   -1.2114 O   0  5  0  0  0  0  0  0  0  0  0  0
   -3.7695    2.0380   -0.1045 H   0  0  0  0  0  0  0  0  0  0  0  0
   -3.1778    0.9798   -1.3846 H   0  0  0  0  0  0  0  0  0  0  0  0
   -4.4208   -0.3210    0.3462 H   0  0  0  0  0  0  0  0  0  0  0  0
   -3.3147    0.2632    1.5883 H   0  0  0  0  0  0  0  0  0  0  0  0
   -2.7196   -1.6662   -0.7071 H   0  0  0  0  0  0  0  0  0  0  0  0
   -2.5170   -1.9407    1.0319 H   0  0  0  0  0  0  0  0  0  0  0  0
   -1.3505    2.4670   -0.8769 H   0  0  0  0  0  0  0  0  0  0  0  0
   -1.5807    2.2907    0.8674 H   0  0  0  0  0  0  0  0  0  0  0  0
    2.6338   -2.2925    0.0204 H   0  0  0  0  0  0  0  0  0  0  0  0
    4.4603   -0.6096   -0.2891 H   0  0  0  0  0  0  0  0  0  0  0  0
    1.5532    2.5871   -0.4248 H   0  0  0  0  0  0  0  0  0  0  0  0
    3.9958    2.8894   -0.0711 H   0  0  0  0  0  0  0  0  0  0  0  0
    5.9913    4.8126   -2.7457 H   0  0  0  0  0  0  0  0  0  0  0  0
    8.4350    5.2066   -2.7909 H   0  0  0  0  0  0  0  0  0  0  0  0
   10.0071    3.3662   -2.2946 H   0  0  0  0  0  0  0  0  0  0  0  0
    6.6565    0.6749   -1.7017 H   0  0  0  0  0  0  0  0  0  0  0  0
  1  2  1  0  0  0  0
  1  6  1  0  0  0  0
  1 27  1  0  0  0  0
  1 28  1  0  0  0  0
  2  3  1  0  0  0  0
  2 29  1  0  0  0  0
  2 30  1  0  0  0  0
  3  4  1  0  0  0  0
  3 31  1  0  0  0  0
  3 32  1  0  0  0  0
  4  5  2  0  0  0  0
  4  9  1  0  0  0  0
  5  6  1  0  0  0  0
  5  7  1  0  0  0  0
  6 33  1  0  0  0  0
  6 34  1  0  0  0  0
  7  8  2  0  0  0  0
  7 13  1  0  0  0  0
  8  9  1  0  0  0  0
  8 10  1  0  0  0  0
 10 11  2  0  0  0  0
 10 35  1  0  0  0  0
 11 12  1  0  0  0  0
 11 36  1  0  0  0  0
 12 13  2  0  0  0  0
 12 14  1  0  0  0  0
 13 37  1  0  0  0  0
 14 15  1  0  0  0  0
 14 38  1  0  0  0  0
 15 16  2  0  0  0  0
 15 17  2  0  0  0  0
 15 18  1  0  0  0  0
 18 19  2  0  0  0  0
 18 23  1  0  0  0  0
 19 20  1  0  0  0  0
 19 39  1  0  0  0  0
 20 21  2  0  0  0  0
 20 40  1  0  0  0  0
 21 22  1  0  0  0  0
 21 41  1  0  0  0  0
 22 23  2  0  0  0  0
 22 24  1  0  0  0  0
 23 42  1  0  0  0  0
 24 25  2  0  0  0  0
 24 26  1  0  0  0  0
M  CHG  2  24   1  26  -1
M  END
