
 OpenBabel10072620223D

124130  0  0  1  0  0  0  0  0999 V2000
    7.2829   -6.1257    7.4703 C   0  0  0  0  0  0  0  0  0  0  0  0
    6.3201   -5.0894    6.8856 C   0  0  1  0  0  0  0  0  0  0  0  0
    7.0814   -3.7920    6.6002 C   0  0  0  0  0  0  0  0  0  0  0  0
    6.1817   -2.7693    5.9166 C   0  0  0  0  0  0  0  0  0  0  0  0
    5.4420   -3.3425    4.6897 C   0  0  3  0  0  0  0  0  0  0  0  0
    4.3653   -2.3414    4.1978 C   0  0  2  0  0  0  0  0  0  0  0  0
    3.6796   -2.8870    2.9373 C   0  0  0  0  0  0  0  0  0  0  0  0
    4.6945   -3.2717    1.8483 C   0  0  1  0  0  0  0  0  0  0  0  0
    5.8384   -4.1277    2.4463 C   0  0  2  0  0  0  0  0  0  0  0  0
    6.3885   -3.5651    3.6376 O   0  0  0  0  0  0  0  0  0  0  0  0
    6.9509   -4.4718    1.4239 C   0  0  0  0  0  0  0  0  0  0  0  0
    8.3446   -3.7685    1.3654 C   0  0  1  0  0  0  0  0  0  0  0  0
    8.8655   -3.6929   -0.1117 C   0  0  1  0  0  0  0  0  0  0  0  0
    8.1713   -2.4719   -0.8306 C   0  0  3  0  0  0  0  0  0  0  0  0
    8.3795   -2.4355   -2.3884 C   0  0  2  0  0  0  0  0  0  0  0  0
    8.9072   -1.1230   -3.0345 C   0  0  1  0  0  0  0  0  0  0  0  0
    8.9552    0.1017   -2.1320 C   0  0  0  0  0  0  0  0  0  0  0  0
    9.4416   -0.2650   -0.7410 C   0  0  0  0  0  0  0  0  0  0  0  0
    8.3779   -1.1340   -0.0812 C   0  0  3  0  0  0  0  0  0  0  0  0
    8.6450   -1.2820    1.3877 C   0  0  0  0  0  0  0  0  0  0  0  0
    8.5977   -2.4461    2.0574 C   0  0  0  0  0  0  0  0  0  0  0  0
    8.9493   -2.4622    3.5201 C   0  0  0  0  0  0  0  0  0  0  0  0
   10.2684   -1.3238   -3.4899 O   0  0  0  0  0  0  0  0  0  0  0  0
   10.4130   -1.6834   -4.7962 C   0  0  0  0  0  0  0  0  0  0  0  0
    9.5029   -1.9362   -5.5735 O   0  0  0  0  0  0  0  0  0  0  0  0
   11.8653   -1.7342   -5.1629 C   0  0  0  0  0  0  0  0  0  0  0  0
    7.0503   -2.8059   -3.0746 C   0  0  0  0  0  0  0  0  0  0  0  0
   10.4086   -3.7120   -0.2562 C   0  0  0  0  0  0  0  0  0  0  0  0
   10.9575   -3.5992   -1.3581 O   0  0  0  0  0  0  0  0  0  0  0  0
   11.3206   -3.8615    0.8931 C   0  0  0  0  0  0  0  0  0  0  0  0
   12.4123   -3.1027    1.0831 C   0  0  0  0  0  0  0  0  0  0  0  0
   13.2017   -3.5001    2.3025 C   0  0  3  0  0  0  0  0  0  0  0  0
   12.4116   -4.5940    2.7787 N   0  0  0  0  0  0  0  0  0  0  0  0
   11.3891   -4.9075    1.9187 C   0  0  0  0  0  0  0  0  0  0  0  0
   10.7227   -5.9221    1.9720 O   0  0  0  0  0  0  0  0  0  0  0  0
   14.6043   -3.9179    2.0300 N   0  3  0  0  0  0  0  0  0  0  0  0
   15.6107   -3.3239    2.7186 C   0  0  0  0  0  0  0  0  0  0  0  0
   16.9309   -3.7126    2.5361 C   0  0  0  0  0  0  0  0  0  0  0  0
   17.2251   -4.7413    1.6556 C   0  0  0  0  0  0  0  0  0  0  0  0
   16.1927   -5.3470    0.9544 C   0  0  0  0  0  0  0  0  0  0  0  0
   14.8835   -4.9189    1.1585 C   0  0  0  0  0  0  0  0  0  0  0  0
   12.7599   -2.0637    0.1880 O   0  0  0  0  0  0  0  0  0  0  0  0
   13.7436   -1.1679    0.4718 C   0  0  0  0  0  0  0  0  0  0  0  0
   14.3366   -1.1224    1.5417 O   0  0  0  0  0  0  0  0  0  0  0  0
   13.9843   -0.2684   -0.7022 C   0  0  0  0  0  0  0  0  0  0  0  0
    3.9506   -4.0030    0.7202 C   0  0  0  0  0  0  0  0  0  0  0  0
    4.9100   -0.9301    3.9329 C   0  0  0  0  0  0  0  0  0  0  0  0
    4.7727   -4.5489    5.0704 O   0  0  0  0  0  0  0  0  0  0  0  0
    5.6398   -5.5676    5.5872 C   0  0  2  0  0  0  0  0  0  0  0  0
    4.7693   -6.7928    5.7773 C   0  0  0  0  0  0  0  0  0  0  0  0
    5.1002   -8.0035    5.1444 C   0  0  0  0  0  0  0  0  0  0  0  0
    4.2838   -9.1250    5.3080 C   0  0  0  0  0  0  0  0  0  0  0  0
    3.1220   -9.0622    6.0743 C   0  0  0  0  0  0  0  0  0  0  0  0
    2.8026   -7.8664    6.7091 C   0  0  0  0  0  0  0  0  0  0  0  0
    3.6031   -6.7340    6.5570 C   0  0  0  0  0  0  0  0  0  0  0  0
    1.6110   -7.6953    7.4325 O   0  0  0  0  0  0  0  0  0  0  0  0
    1.2698   -8.6475    8.3885 C   0  0  0  0  0  0  0  0  0  0  0  0
    1.9031   -9.6522    8.6829 O   0  0  0  0  0  0  0  0  0  0  0  0
   -0.0441   -8.2694    9.0077 C   0  0  0  0  0  0  0  0  0  0  0  0
    4.5046  -10.3478    4.6374 O   0  0  0  0  0  0  0  0  0  0  0  0
    5.7822  -10.8560    4.4179 C   0  0  0  0  0  0  0  0  0  0  0  0
    6.8428  -10.3554    4.7789 O   0  0  0  0  0  0  0  0  0  0  0  0
    5.6804  -12.1554    3.6709 C   0  0  0  0  0  0  0  0  0  0  0  0
    7.7844   -5.7259    8.3597 H   0  0  0  0  0  0  0  0  0  0  0  0
    8.0563   -6.3992    6.7437 H   0  0  0  0  0  0  0  0  0  0  0  0
    6.7572   -7.0373    7.7721 H   0  0  0  0  0  0  0  0  0  0  0  0
    5.5564   -4.8611    7.6418 H   0  0  0  0  0  0  0  0  0  0  0  0
    7.9513   -4.0032    5.9684 H   0  0  0  0  0  0  0  0  0  0  0  0
    7.4688   -3.3670    7.5345 H   0  0  0  0  0  0  0  0  0  0  0  0
    6.8006   -1.9097    5.6394 H   0  0  0  0  0  0  0  0  0  0  0  0
    5.4471   -2.4251    6.6548 H   0  0  0  0  0  0  0  0  0  0  0  0
    3.5894   -2.2546    4.9678 H   0  0  0  0  0  0  0  0  0  0  0  0
    2.9713   -2.1457    2.5417 H   0  0  0  0  0  0  0  0  0  0  0  0
    3.0771   -3.7664    3.2082 H   0  0  0  0  0  0  0  0  0  0  0  0
    5.1192   -2.3475    1.4381 H   0  0  0  0  0  0  0  0  0  0  0  0
    5.3968   -5.0975    2.7180 H   0  0  0  0  0  0  0  0  0  0  0  0
    6.5284   -4.5566    0.4195 H   0  0  0  0  0  0  0  0  0  0  0  0
    7.1998   -5.5257    1.6373 H   0  0  0  0  0  0  0  0  0  0  0  0
    8.9658   -4.4812    1.8999 H   0  0  0  0  0  0  0  0  0  0  0  0
    8.5524   -4.6152   -0.6233 H   0  0  0  0  0  0  0  0  0  0  0  0
    7.0989   -2.6758   -0.6848 H   0  0  0  0  0  0  0  0  0  0  0  0
    9.0664   -3.2408   -2.6707 H   0  0  0  0  0  0  0  0  0  0  0  0
    8.2913   -0.8364   -3.8952 H   0  0  0  0  0  0  0  0  0  0  0  0
    7.9588    0.5613   -2.0786 H   0  0  0  0  0  0  0  0  0  0  0  0
    9.6272    0.8597   -2.5541 H   0  0  0  0  0  0  0  0  0  0  0  0
    9.6051    0.6554   -0.1666 H   0  0  0  0  0  0  0  0  0  0  0  0
   10.4057   -0.7861   -0.7937 H   0  0  0  0  0  0  0  0  0  0  0  0
    7.4272   -0.5807   -0.1419 H   0  0  0  0  0  0  0  0  0  0  0  0
    8.8594   -0.3660    1.9373 H   0  0  0  0  0  0  0  0  0  0  0  0
   10.0167   -2.2627    3.6747 H   0  0  0  0  0  0  0  0  0  0  0  0
    8.7471   -3.4415    3.9628 H   0  0  0  0  0  0  0  0  0  0  0  0
    8.3705   -1.7012    4.0546 H   0  0  0  0  0  0  0  0  0  0  0  0
   12.4150   -0.9545   -4.6253 H   0  0  0  0  0  0  0  0  0  0  0  0
   11.9675   -1.5335   -6.2350 H   0  0  0  0  0  0  0  0  0  0  0  0
   12.2742   -2.7195   -4.9258 H   0  0  0  0  0  0  0  0  0  0  0  0
    6.2778   -2.0621   -2.8491 H   0  0  0  0  0  0  0  0  0  0  0  0
    6.6973   -3.7872   -2.7382 H   0  0  0  0  0  0  0  0  0  0  0  0
    7.1716   -2.8561   -4.1632 H   0  0  0  0  0  0  0  0  0  0  0  0
   13.1859   -2.7292    3.0794 H   0  0  0  0  0  0  0  0  0  0  0  0
   12.6416   -5.2174    3.5445 H   0  0  0  0  0  0  0  0  0  0  0  0
   15.3574   -2.5194    3.4027 H   0  0  0  0  0  0  0  0  0  0  0  0
   17.7284   -3.2078    3.0759 H   0  0  0  0  0  0  0  0  0  0  0  0
   18.2551   -5.0669    1.5128 H   0  0  0  0  0  0  0  0  0  0  0  0
   16.4076   -6.1504    0.2504 H   0  0  0  0  0  0  0  0  0  0  0  0
   14.0578   -5.3852    0.6292 H   0  0  0  0  0  0  0  0  0  0  0  0
   13.8319   -0.8132   -1.6401 H   0  0  0  0  0  0  0  0  0  0  0  0
   15.0230    0.0716   -0.6872 H   0  0  0  0  0  0  0  0  0  0  0  0
   13.3056    0.5840   -0.6542 H   0  0  0  0  0  0  0  0  0  0  0  0
    3.6659   -5.0172    1.0190 H   0  0  0  0  0  0  0  0  0  0  0  0
    4.5563   -4.0892   -0.1837 H   0  0  0  0  0  0  0  0  0  0  0  0
    3.0368   -3.4761    0.4298 H   0  0  0  0  0  0  0  0  0  0  0  0
    5.7726   -0.9442    3.2607 H   0  0  0  0  0  0  0  0  0  0  0  0
    5.2175   -0.4421    4.8639 H   0  0  0  0  0  0  0  0  0  0  0  0
    4.1409   -0.2924    3.4826 H   0  0  0  0  0  0  0  0  0  0  0  0
    6.4108   -5.7978    4.8380 H   0  0  0  0  0  0  0  0  0  0  0  0
    5.9833   -8.0583    4.5141 H   0  0  0  0  0  0  0  0  0  0  0  0
    2.4776   -9.9315    6.1600 H   0  0  0  0  0  0  0  0  0  0  0  0
    3.3074   -5.7997    7.0290 H   0  0  0  0  0  0  0  0  0  0  0  0
   -0.2535   -7.2075    8.8469 H   0  0  0  0  0  0  0  0  0  0  0  0
    0.0057   -8.4371   10.0870 H   0  0  0  0  0  0  0  0  0  0  0  0
   -0.8425   -8.8675    8.5621 H   0  0  0  0  0  0  0  0  0  0  0  0
    4.6636  -12.3135    3.2978 H   0  0  0  0  0  0  0  0  0  0  0  0
    5.9425  -12.9808    4.3376 H   0  0  0  0  0  0  0  0  0  0  0  0
    6.3538  -12.1305    2.8093 H   0  0  0  0  0  0  0  0  0  0  0  0
  1 64  1  0  0  0  0
  1 65  1  0  0  0  0
  1 66  1  0  0  0  0
  2  3  1  0  0  0  0
  2 49  1  0  0  0  0
  2  1  1  0  0  0  0
  2 67  1  1  0  0  0
  3  4  1  0  0  0  0
  3 68  1  0  0  0  0
  3 69  1  0  0  0  0
  4  5  1  0  0  0  0
  4 70  1  0  0  0  0
  4 71  1  0  0  0  0
  5  6  1  0  0  0  0
  5 10  1  0  0  0  0
  5 48  1  0  0  0  0
  6  7  1  0  0  0  0
  6 47  1  0  0  0  0
  6 72  1  1  0  0  0
  7  8  1  0  0  0  0
  7 73  1  0  0  0  0
  7 74  1  0  0  0  0
  8  9  1  0  0  0  0
  8 46  1  0  0  0  0
  8 75  1  6  0  0  0
  9 10  1  0  0  0  0
  9 11  1  0  0  0  0
  9 76  1  1  0  0  0
 11 12  1  0  0  0  0
 11 77  1  0  0  0  0
 11 78  1  0  0  0  0
 12 13  1  0  0  0  0
 12 21  1  0  0  0  0
 12 79  1  1  0  0  0
 13 14  1  0  0  0  0
 13 28  1  0  0  0  0
 13 80  1  6  0  0  0
 14 15  1  0  0  0  0
 14 19  1  0  0  0  0
 14 81  1  0  0  0  0
 15 16  1  0  0  0  0
 15 27  1  0  0  0  0
 15 82  1  6  0  0  0
 16 17  1  0  0  0  0
 16 23  1  0  0  0  0
 16 83  1  6  0  0  0
 17 18  1  0  0  0  0
 17 84  1  0  0  0  0
 17 85  1  0  0  0  0
 18 19  1  0  0  0  0
 18 86  1  0  0  0  0
 18 87  1  0  0  0  0
 19 20  1  0  0  0  0
 19 88  1  0  0  0  0
 20 21  2  0  0  0  0
 20 89  1  0  0  0  0
 21 22  1  0  0  0  0
 22 90  1  0  0  0  0
 22 91  1  0  0  0  0
 22 92  1  0  0  0  0
 23 24  1  0  0  0  0
 24 25  2  0  0  0  0
 24 26  1  0  0  0  0
 26 93  1  0  0  0  0
 26 94  1  0  0  0  0
 26 95  1  0  0  0  0
 27 96  1  0  0  0  0
 27 97  1  0  0  0  0
 27 98  1  0  0  0  0
 28 29  2  0  0  0  0
 28 30  1  0  0  0  0
 30 31  2  0  0  0  0
 30 34  1  0  0  0  0
 31 32  1  0  0  0  0
 31 42  1  0  0  0  0
 32 33  1  0  0  0  0
 32 36  1  0  0  0  0
 32 99  1  0  0  0  0
 33 34  1  0  0  0  0
 33100  1  0  0  0  0
 34 35  2  0  0  0  0
 36 37  2  0  0  0  0
 36 41  1  0  0  0  0
 37 38  1  0  0  0  0
 37101  1  0  0  0  0
 38 39  2  0  0  0  0
 38102  1  0  0  0  0
 39 40  1  0  0  0  0
 39103  1  0  0  0  0
 40 41  2  0  0  0  0
 40104  1  0  0  0  0
 41105  1  0  0  0  0
 42 43  1  0  0  0  0
 43 44  2  0  0  0  0
 43 45  1  0  0  0  0
 45106  1  0  0  0  0
 45107  1  0  0  0  0
 45108  1  0  0  0  0
 46109  1  0  0  0  0
 46110  1  0  0  0  0
 46111  1  0  0  0  0
 47112  1  0  0  0  0
 47113  1  0  0  0  0
 47114  1  0  0  0  0
 48 49  1  0  0  0  0
 49 50  1  0  0  0  0
 49115  1  6  0  0  0
 50 51  2  0  0  0  0
 50 55  1  0  0  0  0
 51 52  1  0  0  0  0
 51116  1  0  0  0  0
 52 53  2  0  0  0  0
 52 60  1  0  0  0  0
 53 54  1  0  0  0  0
 53117  1  0  0  0  0
 54 55  2  0  0  0  0
 54 56  1  0  0  0  0
 55118  1  0  0  0  0
 56 57  1  0  0  0  0
 57 58  2  0  0  0  0
 57 59  1  0  0  0  0
 59119  1  0  0  0  0
 59120  1  0  0  0  0
 59121  1  0  0  0  0
 60 61  1  0  0  0  0
 61 62  2  0  0  0  0
 61 63  1  0  0  0  0
 63122  1  0  0  0  0
 63123  1  0  0  0  0
 63124  1  0  0  0  0
M  CHG  1  36   1
M  END
