
 OpenBabel10072619493D

240248  0  0  1  0  0  0  0  0999 V2000
    1.5272    8.8470   -2.5924 C   0  0  0  0  0  0  0  0  0  0  0  0
    1.6849    7.9612   -1.4912 O   0  0  0  0  0  0  0  0  0  0  0  0
    2.0071    6.6343   -1.9236 C   0  0  0  0  0  0  0  0  0  0  0  0
    2.0275    5.6903   -0.7068 C   0  0  2  0  0  0  0  0  0  0  0  0
    2.7396    4.3485   -0.9685 C   0  0  2  0  0  0  0  0  0  0  0  0
    1.8385    3.3309   -1.7177 C   0  0  1  0  0  0  0  0  0  0  0  0
    0.4179    3.8570   -2.0376 C   0  0  2  0  0  0  0  0  0  0  0  0
   -0.1526    4.5923   -0.7980 C   0  0  1  0  0  0  0  0  0  0  0  0
    0.7282    5.5015   -0.1485 O   0  0  0  0  0  0  0  0  0  0  0  0
   -1.3752    5.2661   -1.1754 O   0  0  0  0  0  0  0  0  0  0  0  0
   -1.9086    6.1666   -0.1706 C   0  0  2  0  0  0  0  0  0  0  0  0
   -2.1153    5.4910    1.1970 C   0  0  2  0  0  0  0  0  0  0  0  0
   -3.0894    4.4457    1.1502 O   0  0  0  0  0  0  0  0  0  0  0  0
   -4.1685    4.5808    0.2373 C   0  0  2  0  0  0  0  0  0  0  0  0
   -4.4971    6.0448   -0.1273 C   0  0  1  0  0  0  0  0  0  0  0  0
   -3.2412    6.7429   -0.7112 C   0  0  1  0  0  0  0  0  0  0  0  0
   -3.2519    8.1573   -0.3919 O   0  0  0  0  0  0  0  0  0  0  0  0
   -4.2433    8.8957   -1.0967 C   0  0  0  0  0  0  0  0  0  0  0  0
   -5.5485    6.1522   -1.1217 O   0  0  0  0  0  0  0  0  0  0  0  0
   -6.8616    6.0848   -0.5733 C   0  0  0  0  0  0  0  0  0  0  0  0
   -5.3331    3.9812    0.8293 O   0  0  0  0  0  0  0  0  0  0  0  0
   -5.2942    2.5414    0.8555 C   0  0  2  0  0  0  0  0  0  0  0  0
   -6.5654    2.0334    0.1288 C   0  0  2  0  0  0  0  0  0  0  0  0
   -7.0508    0.7715    0.6244 O   0  0  0  0  0  0  0  0  0  0  0  0
   -6.0200   -0.1205    1.0402 C   0  0  2  0  0  0  0  0  0  0  0  0
   -5.3020    0.4545    2.2859 C   0  0  1  0  0  0  0  0  0  0  0  0
   -5.3319    2.0064    2.3025 C   0  0  1  0  0  0  0  0  0  0  0  0
   -4.2099    2.5177    3.0463 O   0  0  0  0  0  0  0  0  0  0  0  0
   -4.4093    2.4858    4.4550 C   0  0  0  0  0  0  0  0  0  0  0  0
   -5.8069   -0.0808    3.5361 O   0  0  0  0  0  0  0  0  0  0  0  0
   -7.2165   -0.0368    3.7189 C   0  0  0  0  0  0  0  0  0  0  0  0
   -5.1493   -0.3679   -0.0624 O   0  0  0  0  0  0  0  0  0  0  0  0
   -4.6229   -1.6994   -0.1328 C   0  0  2  0  0  0  0  0  0  0  0  0
   -3.5490   -1.7538   -1.2364 C   0  0  2  0  0  0  0  0  0  0  0  0
   -2.7968   -2.9591   -1.1449 O   0  0  0  0  0  0  0  0  0  0  0  0
   -3.5351   -4.1156   -0.7811 C   0  0  2  0  0  0  0  0  0  0  0  0
   -5.0439   -4.0475   -1.1256 C   0  0  1  0  0  0  0  0  0  0  0  0
   -5.6924   -2.7482   -0.5714 C   0  0  1  0  0  0  0  0  0  0  0  0
   -6.5565   -3.1050    0.5241 O   0  0  0  0  0  0  0  0  0  0  0  0
   -7.9271   -3.1619    0.1291 C   0  0  0  0  0  0  0  0  0  0  0  0
   -5.2737   -4.0621   -2.5561 O   0  0  0  0  0  0  0  0  0  0  0  0
   -4.9630   -5.3063   -3.1748 C   0  0  0  0  0  0  0  0  0  0  0  0
   -3.3540   -4.4207    0.6088 O   0  0  0  0  0  0  0  0  0  0  0  0
   -1.9785   -4.7100    0.9291 C   0  0  2  0  0  0  0  0  0  0  0  0
   -1.7063   -6.2365    0.9635 C   0  0  2  0  0  0  0  0  0  0  0  0
   -0.3431   -6.5711    1.2788 O   0  0  0  0  0  0  0  0  0  0  0  0
    0.4856   -5.5034    1.7071 C   0  0  2  0  0  0  0  0  0  0  0  0
   -0.1889   -4.6097    2.7819 C   0  0  1  0  0  0  0  0  0  0  0  0
   -1.6278   -4.1909    2.3518 C   0  0  1  0  0  0  0  0  0  0  0  0
   -1.9370   -2.7930    2.5360 O   0  0  0  0  0  0  0  0  0  0  0  0
   -0.9755   -1.8483    2.0941 C   0  0  0  0  0  0  0  0  0  0  0  0
   -0.2516   -5.3488    4.0224 O   0  0  0  0  0  0  0  0  0  0  0  0
   -0.1863   -4.4965    5.1631 C   0  0  0  0  0  0  0  0  0  0  0  0
    0.8799   -4.6723    0.6103 O   0  0  0  0  0  0  0  0  0  0  0  0
    1.5293   -5.3278   -0.5087 C   0  0  2  0  0  0  0  0  0  0  0  0
    2.9916   -5.6458   -0.1656 C   0  0  2  0  0  0  0  0  0  0  0  0
    3.7417   -4.4345   -0.2028 O   0  0  0  0  0  0  0  0  0  0  0  0
    3.8892   -3.7828   -1.4565 C   0  0  2  0  0  0  0  0  0  0  0  0
    2.7248   -4.0482   -2.4473 C   0  0  1  0  0  0  0  0  0  0  0  0
    1.4034   -4.3125   -1.6879 C   0  0  1  0  0  0  0  0  0  0  0  0
    0.2865   -4.6887   -2.5302 O   0  0  0  0  0  0  0  0  0  0  0  0
    0.5587   -5.6674   -3.5203 C   0  0  0  0  0  0  0  0  0  0  0  0
    2.6055   -3.0608   -3.4981 O   0  0  0  0  0  0  0  0  0  0  0  0
    2.3481   -1.7195   -3.1015 C   0  0  0  0  0  0  0  0  0  0  0  0
    5.1364   -4.1651   -2.0487 O   0  0  0  0  0  0  0  0  0  0  0  0
    6.3543   -3.5754   -1.5108 C   0  0  2  0  0  0  0  0  0  0  0  0
    6.3283   -3.1423   -0.0336 C   0  0  2  0  0  0  0  0  0  0  0  0
    5.5694   -1.9432    0.1344 O   0  0  0  0  0  0  0  0  0  0  0  0
    5.8485   -0.8370   -0.7139 C   0  0  2  0  0  0  0  0  0  0  0  0
    6.9455   -1.0652   -1.7805 C   0  0  1  0  0  0  0  0  0  0  0  0
    6.7841   -2.4381   -2.4625 C   0  0  1  0  0  0  0  0  0  0  0  0
    8.0782   -2.7691   -3.0326 O   0  0  0  0  0  0  0  0  0  0  0  0
    7.9799   -3.6124   -4.1755 C   0  0  0  0  0  0  0  0  0  0  0  0
    6.8991   -0.0735   -2.8386 O   0  0  0  0  0  0  0  0  0  0  0  0
    7.4925    1.1683   -2.4868 C   0  0  0  0  0  0  0  0  0  0  0  0
    6.1810    0.3041    0.0898 O   0  0  0  0  0  0  0  0  0  0  0  0
    5.3633    0.4703    1.2783 C   0  0  2  0  0  0  0  0  0  0  0  0
    3.8526    0.5438    0.9833 C   0  0  2  0  0  0  0  0  0  0  0  0
    3.5921    1.6023    0.0573 O   0  0  0  0  0  0  0  0  0  0  0  0
    4.1884    2.8626    0.3051 C   0  0  1  0  0  0  0  0  0  0  0  0
    3.1406    3.8516    0.3300 O   0  0  0  0  0  0  0  0  0  0  0  0
    4.9733    2.9972    1.6334 C   0  0  1  0  0  0  0  0  0  0  0  0
    5.8563    1.7678    1.9498 C   0  0  1  0  0  0  0  0  0  0  0  0
    5.8489    1.5362    3.3814 O   0  0  0  0  0  0  0  0  0  0  0  0
    6.7581    2.3688    4.0919 C   0  0  0  0  0  0  0  0  0  0  0  0
    5.8443    4.1586    1.6108 O   0  0  0  0  0  0  0  0  0  0  0  0
    5.2122    5.3435    2.0837 C   0  0  0  0  0  0  0  0  0  0  0  0
    2.9799    0.6128    2.2570 C   0  0  0  0  0  0  0  0  0  0  0  0
    1.6175    0.8941    1.9182 O   0  0  0  0  0  0  0  0  0  0  0  0
    0.9068    1.4533    3.0171 C   0  0  0  0  0  0  0  0  0  0  0  0
    7.7076   -3.0353    0.6467 C   0  0  0  0  0  0  0  0  0  0  0  0
    7.4897   -2.9433    2.0636 O   0  0  0  0  0  0  0  0  0  0  0  0
    8.7007   -2.9205    2.8009 C   0  0  0  0  0  0  0  0  0  0  0  0
    3.5773   -6.7994   -1.0049 C   0  0  0  0  0  0  0  0  0  0  0  0
    4.8747   -7.1540   -0.5155 O   0  0  0  0  0  0  0  0  0  0  0  0
    5.4825   -8.1494   -1.3297 C   0  0  0  0  0  0  0  0  0  0  0  0
   -2.0554   -6.9965   -0.3244 C   0  0  0  0  0  0  0  0  0  0  0  0
   -1.8756   -8.4033   -0.0999 O   0  0  0  0  0  0  0  0  0  0  0  0
   -1.8077   -9.1431   -1.3060 C   0  0  0  0  0  0  0  0  0  0  0  0
   -2.5640   -0.5763   -1.2836 C   0  0  0  0  0  0  0  0  0  0  0  0
   -1.4836   -0.7492   -2.2220 O   0  0  0  0  0  0  0  0  0  0  0  0
   -1.8791   -1.1602   -3.5225 C   0  0  0  0  0  0  0  0  0  0  0  0
   -6.3674    1.9955   -1.3980 C   0  0  0  0  0  0  0  0  0  0  0  0
   -7.5436    1.4673   -2.0243 O   0  0  0  0  0  0  0  0  0  0  0  0
   -7.3273    1.1773   -3.3965 C   0  0  0  0  0  0  0  0  0  0  0  0
   -2.3956    6.5112    2.3249 C   0  0  0  0  0  0  0  0  0  0  0  0
   -2.5598    5.9352    3.6272 O   0  0  0  0  0  0  0  0  0  0  0  0
   -1.4348    5.1968    4.0790 C   0  0  0  0  0  0  0  0  0  0  0  0
   -0.5094    2.7947   -2.3557 O   0  0  0  0  0  0  0  0  0  0  0  0
   -0.4164    2.3136   -3.6867 C   0  0  0  0  0  0  0  0  0  0  0  0
    2.5085    2.7700   -2.8736 O   0  0  0  0  0  0  0  0  0  0  0  0
    2.9789    3.6632   -3.8680 C   0  0  0  0  0  0  0  0  0  0  0  0
    1.2985    9.8432   -2.2056 H   0  0  0  0  0  0  0  0  0  0  0  0
    2.4520    8.8987   -3.1751 H   0  0  0  0  0  0  0  0  0  0  0  0
    0.6993    8.5211   -3.2298 H   0  0  0  0  0  0  0  0  0  0  0  0
    1.2659    6.3374   -2.6648 H   0  0  0  0  0  0  0  0  0  0  0  0
    2.9957    6.6602   -2.3957 H   0  0  0  0  0  0  0  0  0  0  0  0
    2.5777    6.2179    0.0820 H   0  0  0  0  0  0  0  0  0  0  0  0
    3.6663    4.5662   -1.5064 H   0  0  0  0  0  0  0  0  0  0  0  0
    1.6767    2.4601   -1.0731 H   0  0  0  0  0  0  0  0  0  0  0  0
    0.4213    4.5322   -2.8954 H   0  0  0  0  0  0  0  0  0  0  0  0
   -0.4263    3.8200   -0.0703 H   0  0  0  0  0  0  0  0  0  0  0  0
   -1.1890    6.9891   -0.0704 H   0  0  0  0  0  0  0  0  0  0  0  0
   -1.1953    4.9812    1.4882 H   0  0  0  0  0  0  0  0  0  0  0  0
   -3.9310    4.0401   -0.6881 H   0  0  0  0  0  0  0  0  0  0  0  0
   -4.8315    6.5859    0.7652 H   0  0  0  0  0  0  0  0  0  0  0  0
   -3.2426    6.6556   -1.8067 H   0  0  0  0  0  0  0  0  0  0  0  0
   -5.2403    8.6767   -0.7076 H   0  0  0  0  0  0  0  0  0  0  0  0
   -4.1963    8.6973   -2.1716 H   0  0  0  0  0  0  0  0  0  0  0  0
   -4.0502    9.9600   -0.9343 H   0  0  0  0  0  0  0  0  0  0  0  0
   -7.1431    5.0529   -0.3614 H   0  0  0  0  0  0  0  0  0  0  0  0
   -7.5593    6.4686   -1.3229 H   0  0  0  0  0  0  0  0  0  0  0  0
   -6.9586    6.7003    0.3265 H   0  0  0  0  0  0  0  0  0  0  0  0
   -4.3819    2.1740    0.3673 H   0  0  0  0  0  0  0  0  0  0  0  0
   -7.3918    2.7308    0.3185 H   0  0  0  0  0  0  0  0  0  0  0  0
   -6.5297   -1.0354    1.3268 H   0  0  0  0  0  0  0  0  0  0  0  0
   -4.2540    0.1288    2.2613 H   0  0  0  0  0  0  0  0  0  0  0  0
   -6.2405    2.3960    2.7742 H   0  0  0  0  0  0  0  0  0  0  0  0
   -5.4037    2.8525    4.7290 H   0  0  0  0  0  0  0  0  0  0  0  0
   -3.6676    3.1398    4.9196 H   0  0  0  0  0  0  0  0  0  0  0  0
   -4.2588    1.4748    4.8406 H   0  0  0  0  0  0  0  0  0  0  0  0
   -7.6256    0.9580    3.5321 H   0  0  0  0  0  0  0  0  0  0  0  0
   -7.4266   -0.3019    4.7587 H   0  0  0  0  0  0  0  0  0  0  0  0
   -7.7176   -0.7747    3.0874 H   0  0  0  0  0  0  0  0  0  0  0  0
   -4.1993   -1.9587    0.8444 H   0  0  0  0  0  0  0  0  0  0  0  0
   -4.0549   -1.7558   -2.2123 H   0  0  0  0  0  0  0  0  0  0  0  0
   -3.0827   -4.9130   -1.3645 H   0  0  0  0  0  0  0  0  0  0  0  0
   -5.5558   -4.9180   -0.6934 H   0  0  0  0  0  0  0  0  0  0  0  0
   -6.3035   -2.2728   -1.3525 H   0  0  0  0  0  0  0  0  0  0  0  0
   -8.4998   -3.6239    0.9379 H   0  0  0  0  0  0  0  0  0  0  0  0
   -8.3085   -2.1485   -0.0301 H   0  0  0  0  0  0  0  0  0  0  0  0
   -8.0547   -3.7576   -0.7795 H   0  0  0  0  0  0  0  0  0  0  0  0
   -5.4334   -6.1389   -2.6438 H   0  0  0  0  0  0  0  0  0  0  0  0
   -3.8814   -5.4546   -3.2305 H   0  0  0  0  0  0  0  0  0  0  0  0
   -5.3449   -5.2836   -4.1981 H   0  0  0  0  0  0  0  0  0  0  0  0
   -1.3344   -4.2029    0.2071 H   0  0  0  0  0  0  0  0  0  0  0  0
   -2.3212   -6.6825    1.7585 H   0  0  0  0  0  0  0  0  0  0  0  0
    1.3752   -5.9572    2.1520 H   0  0  0  0  0  0  0  0  0  0  0  0
    0.4626   -3.7445    2.9362 H   0  0  0  0  0  0  0  0  0  0  0  0
   -2.3406   -4.6744    3.0333 H   0  0  0  0  0  0  0  0  0  0  0  0
   -1.4890   -0.8999    1.9135 H   0  0  0  0  0  0  0  0  0  0  0  0
   -0.4693   -2.1617    1.1789 H   0  0  0  0  0  0  0  0  0  0  0  0
   -0.2485   -1.6680    2.8929 H   0  0  0  0  0  0  0  0  0  0  0  0
    0.8316   -4.1122    5.2755 H   0  0  0  0  0  0  0  0  0  0  0  0
   -0.4292   -5.0940    6.0458 H   0  0  0  0  0  0  0  0  0  0  0  0
   -0.8970   -3.6699    5.0853 H   0  0  0  0  0  0  0  0  0  0  0  0
    0.9778   -6.2447   -0.7362 H   0  0  0  0  0  0  0  0  0  0  0  0
    3.0645   -5.9671    0.8777 H   0  0  0  0  0  0  0  0  0  0  0  0
    3.9070   -2.7148   -1.2610 H   0  0  0  0  0  0  0  0  0  0  0  0
    2.9790   -4.9404   -3.0220 H   0  0  0  0  0  0  0  0  0  0  0  0
    1.0767   -3.3582   -1.2594 H   0  0  0  0  0  0  0  0  0  0  0  0
    1.1381   -6.5015   -3.1158 H   0  0  0  0  0  0  0  0  0  0  0  0
    1.0811   -5.2149   -4.3679 H   0  0  0  0  0  0  0  0  0  0  0  0
   -0.3963   -6.0562   -3.8847 H   0  0  0  0  0  0  0  0  0  0  0  0
    2.1022   -1.1458   -3.9999 H   0  0  0  0  0  0  0  0  0  0  0  0
    3.2430   -1.2688   -2.6685 H   0  0  0  0  0  0  0  0  0  0  0  0
    1.5077   -1.6407   -2.4099 H   0  0  0  0  0  0  0  0  0  0  0  0
    7.0780   -4.3962   -1.5873 H   0  0  0  0  0  0  0  0  0  0  0  0
    5.8014   -3.9036    0.5474 H   0  0  0  0  0  0  0  0  0  0  0  0
    4.9276   -0.5829   -1.2478 H   0  0  0  0  0  0  0  0  0  0  0  0
    7.9423   -0.9993   -1.3327 H   0  0  0  0  0  0  0  0  0  0  0  0
    6.0684   -2.3342   -3.2902 H   0  0  0  0  0  0  0  0  0  0  0  0
    7.4365   -4.5329   -3.9459 H   0  0  0  0  0  0  0  0  0  0  0  0
    7.4940   -3.0803   -4.9981 H   0  0  0  0  0  0  0  0  0  0  0  0
    8.9947   -3.8778   -4.4870 H   0  0  0  0  0  0  0  0  0  0  0  0
    6.8286    1.7435   -1.8383 H   0  0  0  0  0  0  0  0  0  0  0  0
    7.6423    1.7414   -3.4067 H   0  0  0  0  0  0  0  0  0  0  0  0
    8.4686    1.0272   -2.0129 H   0  0  0  0  0  0  0  0  0  0  0  0
    5.5702   -0.3749    1.9468 H   0  0  0  0  0  0  0  0  0  0  0  0
    3.5252   -0.3563    0.4531 H   0  0  0  0  0  0  0  0  0  0  0  0
    4.8724    3.0809   -0.5236 H   0  0  0  0  0  0  0  0  0  0  0  0
    4.2621    3.1437    2.4545 H   0  0  0  0  0  0  0  0  0  0  0  0
    6.8954    1.9553    1.6451 H   0  0  0  0  0  0  0  0  0  0  0  0
    6.5450    3.4268    3.9292 H   0  0  0  0  0  0  0  0  0  0  0  0
    7.7873    2.1380    3.8039 H   0  0  0  0  0  0  0  0  0  0  0  0
    6.6404    2.1603    5.1589 H   0  0  0  0  0  0  0  0  0  0  0  0
    4.7613    5.1842    3.0680 H   0  0  0  0  0  0  0  0  0  0  0  0
    4.4642    5.6956    1.3733 H   0  0  0  0  0  0  0  0  0  0  0  0
    5.9790    6.1161    2.1824 H   0  0  0  0  0  0  0  0  0  0  0  0
    3.3362    1.3636    2.9618 H   0  0  0  0  0  0  0  0  0  0  0  0
    3.0115   -0.3542    2.7730 H   0  0  0  0  0  0  0  0  0  0  0  0
   -0.1267    1.6338    2.7091 H   0  0  0  0  0  0  0  0  0  0  0  0
    1.3492    2.4111    3.3118 H   0  0  0  0  0  0  0  0  0  0  0  0
    0.9095    0.7624    3.8653 H   0  0  0  0  0  0  0  0  0  0  0  0
    8.3021   -3.9317    0.4374 H   0  0  0  0  0  0  0  0  0  0  0  0
    8.2658   -2.1504    0.3400 H   0  0  0  0  0  0  0  0  0  0  0  0
    8.4512   -2.8693    3.8643 H   0  0  0  0  0  0  0  0  0  0  0  0
    9.2934   -2.0399    2.5376 H   0  0  0  0  0  0  0  0  0  0  0  0
    9.2754   -3.8340    2.6222 H   0  0  0  0  0  0  0  0  0  0  0  0
    2.9252   -7.6775   -0.9190 H   0  0  0  0  0  0  0  0  0  0  0  0
    3.6688   -6.5487   -2.0608 H   0  0  0  0  0  0  0  0  0  0  0  0
    6.4552   -8.4016   -0.9009 H   0  0  0  0  0  0  0  0  0  0  0  0
    4.8648   -9.0528   -1.3565 H   0  0  0  0  0  0  0  0  0  0  0  0
    5.6367   -7.7710   -2.3454 H   0  0  0  0  0  0  0  0  0  0  0  0
   -3.0980   -6.8494   -0.6103 H   0  0  0  0  0  0  0  0  0  0  0  0
   -1.3940   -6.6699   -1.1363 H   0  0  0  0  0  0  0  0  0  0  0  0
   -1.6546  -10.1957   -1.0486 H   0  0  0  0  0  0  0  0  0  0  0  0
   -0.9583   -8.8103   -1.9109 H   0  0  0  0  0  0  0  0  0  0  0  0
   -2.7382   -9.0488   -1.8717 H   0  0  0  0  0  0  0  0  0  0  0  0
   -3.0796    0.3584   -1.5310 H   0  0  0  0  0  0  0  0  0  0  0  0
   -2.0926   -0.4435   -0.3065 H   0  0  0  0  0  0  0  0  0  0  0  0
   -1.0356   -1.0112   -4.2025 H   0  0  0  0  0  0  0  0  0  0  0  0
   -2.7275   -0.5718   -3.8838 H   0  0  0  0  0  0  0  0  0  0  0  0
   -2.1239   -2.2272   -3.5348 H   0  0  0  0  0  0  0  0  0  0  0  0
   -6.1922    3.0078   -1.7810 H   0  0  0  0  0  0  0  0  0  0  0  0
   -5.5052    1.3788   -1.6672 H   0  0  0  0  0  0  0  0  0  0  0  0
   -6.5075    0.4614   -3.5179 H   0  0  0  0  0  0  0  0  0  0  0  0
   -7.1121    2.0964   -3.9482 H   0  0  0  0  0  0  0  0  0  0  0  0
   -8.2384    0.7279   -3.8002 H   0  0  0  0  0  0  0  0  0  0  0  0
   -3.3156    7.0676    2.1412 H   0  0  0  0  0  0  0  0  0  0  0  0
   -1.5856    7.2492    2.3738 H   0  0  0  0  0  0  0  0  0  0  0  0
   -1.3934    4.2206    3.5877 H   0  0  0  0  0  0  0  0  0  0  0  0
   -1.5478    5.0265    5.1529 H   0  0  0  0  0  0  0  0  0  0  0  0
   -0.5051    5.7492    3.9103 H   0  0  0  0  0  0  0  0  0  0  0  0
   -1.3160    1.7290   -3.8942 H   0  0  0  0  0  0  0  0  0  0  0  0
    0.4498    1.6602   -3.8051 H   0  0  0  0  0  0  0  0  0  0  0  0
   -0.3809    3.1373   -4.4058 H   0  0  0  0  0  0  0  0  0  0  0  0
    3.8763    4.1900   -3.5339 H   0  0  0  0  0  0  0  0  0  0  0  0
    3.2649    3.0702   -4.7422 H   0  0  0  0  0  0  0  0  0  0  0  0
    2.2135    4.3782   -4.1748 H   0  0  0  0  0  0  0  0  0  0  0  0
  1  2  1  0  0  0  0
  1113  1  0  0  0  0
  1114  1  0  0  0  0
  1115  1  0  0  0  0
  2  3  1  0  0  0  0
  3  4  1  0  0  0  0
  3116  1  0  0  0  0
  3117  1  0  0  0  0
  4  5  1  0  0  0  0
  4  9  1  0  0  0  0
  4118  1  1  0  0  0
  5  6  1  0  0  0  0
  5 81  1  0  0  0  0
  5119  1  6  0  0  0
  6  7  1  0  0  0  0
  6111  1  0  0  0  0
  6120  1  1  0  0  0
  7  8  1  0  0  0  0
  7109  1  0  0  0  0
  7121  1  6  0  0  0
  8  9  1  0  0  0  0
  8 10  1  0  0  0  0
  8122  1  1  0  0  0
 10 11  1  0  0  0  0
 11 12  1  0  0  0  0
 11 16  1  0  0  0  0
 11123  1  1  0  0  0
 12 13  1  0  0  0  0
 12106  1  0  0  0  0
 12124  1  1  0  0  0
 13 14  1  0  0  0  0
 14 15  1  0  0  0  0
 14 21  1  0  0  0  0
 14125  1  6  0  0  0
 15 16  1  0  0  0  0
 15 19  1  0  0  0  0
 15126  1  1  0  0  0
 16 17  1  0  0  0  0
 16127  1  6  0  0  0
 17 18  1  0  0  0  0
 18128  1  0  0  0  0
 18129  1  0  0  0  0
 18130  1  0  0  0  0
 19 20  1  0  0  0  0
 20131  1  0  0  0  0
 20132  1  0  0  0  0
 20133  1  0  0  0  0
 21 22  1  0  0  0  0
 22 23  1  0  0  0  0
 22 27  1  0  0  0  0
 22134  1  6  0  0  0
 23 24  1  0  0  0  0
 23103  1  0  0  0  0
 23135  1  1  0  0  0
 24 25  1  0  0  0  0
 25 26  1  0  0  0  0
 25 32  1  0  0  0  0
 25136  1  1  0  0  0
 26 27  1  0  0  0  0
 26 30  1  0  0  0  0
 26137  1  6  0  0  0
 27 28  1  0  0  0  0
 27138  1  1  0  0  0
 28 29  1  0  0  0  0
 29139  1  0  0  0  0
 29140  1  0  0  0  0
 29141  1  0  0  0  0
 30 31  1  0  0  0  0
 31142  1  0  0  0  0
 31143  1  0  0  0  0
 31144  1  0  0  0  0
 32 33  1  0  0  0  0
 33 34  1  0  0  0  0
 33 38  1  0  0  0  0
 33145  1  1  0  0  0
 34 35  1  0  0  0  0
 34100  1  0  0  0  0
 34146  1  6  0  0  0
 35 36  1  0  0  0  0
 36 37  1  0  0  0  0
 36 43  1  0  0  0  0
 36147  1  6  0  0  0
 37 38  1  0  0  0  0
 37 41  1  0  0  0  0
 37148  1  1  0  0  0
 38 39  1  0  0  0  0
 38149  1  6  0  0  0
 39 40  1  0  0  0  0
 40150  1  0  0  0  0
 40151  1  0  0  0  0
 40152  1  0  0  0  0
 41 42  1  0  0  0  0
 42153  1  0  0  0  0
 42154  1  0  0  0  0
 42155  1  0  0  0  0
 43 44  1  0  0  0  0
 44 45  1  0  0  0  0
 44 49  1  0  0  0  0
 44156  1  6  0  0  0
 45 46  1  0  0  0  0
 45 97  1  0  0  0  0
 45157  1  1  0  0  0
 46 47  1  0  0  0  0
 47 48  1  0  0  0  0
 47 54  1  0  0  0  0
 47158  1  1  0  0  0
 48 49  1  0  0  0  0
 48 52  1  0  0  0  0
 48159  1  1  0  0  0
 49 50  1  0  0  0  0
 49160  1  1  0  0  0
 50 51  1  0  0  0  0
 51161  1  0  0  0  0
 51162  1  0  0  0  0
 51163  1  0  0  0  0
 52 53  1  0  0  0  0
 53164  1  0  0  0  0
 53165  1  0  0  0  0
 53166  1  0  0  0  0
 54 55  1  0  0  0  0
 55 56  1  0  0  0  0
 55 60  1  0  0  0  0
 55167  1  6  0  0  0
 56 57  1  0  0  0  0
 56 94  1  0  0  0  0
 56168  1  1  0  0  0
 57 58  1  0  0  0  0
 58 59  1  0  0  0  0
 58 65  1  0  0  0  0
 58169  1  1  0  0  0
 59 60  1  0  0  0  0
 59 63  1  0  0  0  0
 59170  1  6  0  0  0
 60 61  1  0  0  0  0
 60171  1  1  0  0  0
 61 62  1  0  0  0  0
 62172  1  0  0  0  0
 62173  1  0  0  0  0
 62174  1  0  0  0  0
 63 64  1  0  0  0  0
 64175  1  0  0  0  0
 64176  1  0  0  0  0
 64177  1  0  0  0  0
 65 66  1  0  0  0  0
 66 67  1  0  0  0  0
 66 71  1  0  0  0  0
 66178  1  6  0  0  0
 67 68  1  0  0  0  0
 67 91  1  0  0  0  0
 67179  1  1  0  0  0
 68 69  1  0  0  0  0
 69 70  1  0  0  0  0
 69 76  1  0  0  0  0
 69180  1  6  0  0  0
 70 71  1  0  0  0  0
 70 74  1  0  0  0  0
 70181  1  1  0  0  0
 71 72  1  0  0  0  0
 71182  1  6  0  0  0
 72 73  1  0  0  0  0
 73183  1  0  0  0  0
 73184  1  0  0  0  0
 73185  1  0  0  0  0
 74 75  1  0  0  0  0
 75186  1  0  0  0  0
 75187  1  0  0  0  0
 75188  1  0  0  0  0
 76 77  1  0  0  0  0
 77 78  1  0  0  0  0
 77 83  1  0  0  0  0
 77189  1  1  0  0  0
 78 79  1  0  0  0  0
 78 88  1  0  0  0  0
 78190  1  6  0  0  0
 79 80  1  0  0  0  0
 80 81  1  0  0  0  0
 80 82  1  0  0  0  0
 80191  1  6  0  0  0
 82 83  1  0  0  0  0
 82 86  1  0  0  0  0
 82192  1  1  0  0  0
 83 84  1  0  0  0  0
 83193  1  6  0  0  0
 84 85  1  0  0  0  0
 85194  1  0  0  0  0
 85195  1  0  0  0  0
 85196  1  0  0  0  0
 86 87  1  0  0  0  0
 87197  1  0  0  0  0
 87198  1  0  0  0  0
 87199  1  0  0  0  0
 88 89  1  0  0  0  0
 88200  1  0  0  0  0
 88201  1  0  0  0  0
 89 90  1  0  0  0  0
 90202  1  0  0  0  0
 90203  1  0  0  0  0
 90204  1  0  0  0  0
 91 92  1  0  0  0  0
 91205  1  0  0  0  0
 91206  1  0  0  0  0
 92 93  1  0  0  0  0
 93207  1  0  0  0  0
 93208  1  0  0  0  0
 93209  1  0  0  0  0
 94 95  1  0  0  0  0
 94210  1  0  0  0  0
 94211  1  0  0  0  0
 95 96  1  0  0  0  0
 96212  1  0  0  0  0
 96213  1  0  0  0  0
 96214  1  0  0  0  0
 97 98  1  0  0  0  0
 97215  1  0  0  0  0
 97216  1  0  0  0  0
 98 99  1  0  0  0  0
 99217  1  0  0  0  0
 99218  1  0  0  0  0
 99219  1  0  0  0  0
100101  1  0  0  0  0
100220  1  0  0  0  0
100221  1  0  0  0  0
101102  1  0  0  0  0
102222  1  0  0  0  0
102223  1  0  0  0  0
102224  1  0  0  0  0
103104  1  0  0  0  0
103225  1  0  0  0  0
103226  1  0  0  0  0
104105  1  0  0  0  0
105227  1  0  0  0  0
105228  1  0  0  0  0
105229  1  0  0  0  0
106107  1  0  0  0  0
106230  1  0  0  0  0
106231  1  0  0  0  0
107108  1  0  0  0  0
108232  1  0  0  0  0
108233  1  0  0  0  0
108234  1  0  0  0  0
109110  1  0  0  0  0
110235  1  0  0  0  0
110236  1  0  0  0  0
110237  1  0  0  0  0
111112  1  0  0  0  0
112238  1  0  0  0  0
112239  1  0  0  0  0
112240  1  0  0  0  0
M  END
