
 OpenBabel10072620003D

 45 47  0  0  1  0  0  0  0  0999 V2000
    2.6729   -1.5284    2.8048 C   0  0  0  0  0  0  0  0  0  0  0  0
    2.8171   -1.5782    1.2805 C   0  0  3  0  0  0  0  0  0  0  0  0
    1.4539   -1.3550    0.6463 C   0  0  0  0  0  0  0  0  0  0  0  0
    0.7607   -0.1393    0.7847 C   0  0  0  0  0  0  0  0  0  0  0  0
   -0.5347   -0.0024    0.2835 C   0  0  0  0  0  0  0  0  0  0  0  0
   -1.1521   -1.0735   -0.3594 C   0  0  0  0  0  0  0  0  0  0  0  0
   -0.4678   -2.2757   -0.5239 C   0  0  0  0  0  0  0  0  0  0  0  0
    0.8286   -2.4136   -0.0295 C   0  0  0  0  0  0  0  0  0  0  0  0
    3.7663   -0.5824    0.7999 N   0  0  0  0  0  0  0  0  0  0  0  0
    5.0989   -0.7217    0.9754 C   0  0  0  0  0  0  0  0  0  0  0  0
    6.2088   -0.0201    0.5767 C   0  0  0  0  0  0  0  0  0  0  0  0
    7.3540   -0.5863    1.0937 N   0  0  0  0  0  0  0  0  0  0  0  0
    6.9283   -1.6279    1.8011 C   0  0  0  0  0  0  0  0  0  0  0  0
    5.5514   -1.7608    1.7365 O   0  0  0  0  0  0  0  0  0  0  0  0
    7.7517   -2.5088    2.5660 C   0  0  0  0  0  0  0  0  0  0  0  0
    7.2212   -3.5099    3.2802 C   0  0  0  0  0  0  0  0  0  0  0  0
    7.9660   -4.4585    4.1322 C   0  0  0  0  0  0  0  0  0  0  0  0
    9.1277   -4.1037    4.8393 C   0  0  0  0  0  0  0  0  0  0  0  0
    9.7640   -5.0294    5.6775 C   0  0  0  0  0  0  0  0  0  0  0  0
    9.2327   -6.3140    5.8137 C   0  0  0  0  0  0  0  0  0  0  0  0
    8.0747   -6.6755    5.1303 C   0  0  0  0  0  0  0  0  0  0  0  0
    7.4420   -5.7490    4.2994 C   0  0  0  0  0  0  0  0  0  0  0  0
   10.8949   -4.8065    6.4159 O   0  0  0  0  0  0  0  0  0  0  0  0
   11.5008   -3.5248    6.3069 C   0  0  0  0  0  0  0  0  0  0  0  0
    6.2333    1.1650   -0.2186 C   0  0  0  0  0  0  0  0  0  0  0  0
    6.2031    2.1313   -0.8618 N   0  0  0  0  0  0  0  0  0  0  0  0
    1.8899   -2.2155    3.1436 H   0  0  0  0  0  0  0  0  0  0  0  0
    2.4065   -0.5262    3.1574 H   0  0  0  0  0  0  0  0  0  0  0  0
    3.5981   -1.8160    3.3119 H   0  0  0  0  0  0  0  0  0  0  0  0
    3.1737   -2.5768    0.9944 H   0  0  0  0  0  0  0  0  0  0  0  0
    1.2212    0.7024    1.2993 H   0  0  0  0  0  0  0  0  0  0  0  0
   -1.0656    0.9392    0.4017 H   0  0  0  0  0  0  0  0  0  0  0  0
   -2.1665   -0.9707   -0.7361 H   0  0  0  0  0  0  0  0  0  0  0  0
   -0.9450   -3.1088   -1.0332 H   0  0  0  0  0  0  0  0  0  0  0  0
    1.3436   -3.3627   -0.1633 H   0  0  0  0  0  0  0  0  0  0  0  0
    3.3998    0.0702    0.1067 H   0  0  0  0  0  0  0  0  0  0  0  0
    8.8203   -2.3216    2.5450 H   0  0  0  0  0  0  0  0  0  0  0  0
    6.1438   -3.6807    3.2590 H   0  0  0  0  0  0  0  0  0  0  0  0
    9.5189   -3.0975    4.7388 H   0  0  0  0  0  0  0  0  0  0  0  0
    9.7294   -7.0368    6.4581 H   0  0  0  0  0  0  0  0  0  0  0  0
    7.6690   -7.6776    5.2447 H   0  0  0  0  0  0  0  0  0  0  0  0
    6.5386   -6.0549    3.7756 H   0  0  0  0  0  0  0  0  0  0  0  0
   12.3792   -3.5116    6.9604 H   0  0  0  0  0  0  0  0  0  0  0  0
   10.8218   -2.7369    6.6488 H   0  0  0  0  0  0  0  0  0  0  0  0
   11.8421   -3.3394    5.2832 H   0  0  0  0  0  0  0  0  0  0  0  0
  1  2  1  0  0  0  0
  1 27  1  0  0  0  0
  1 28  1  0  0  0  0
  1 29  1  0  0  0  0
  2  3  1  0  0  0  0
  2  9  1  0  0  0  0
  2 30  1  0  0  0  0
  3  4  2  0  0  0  0
  3  8  1  0  0  0  0
  4  5  1  0  0  0  0
  4 31  1  0  0  0  0
  5  6  2  0  0  0  0
  5 32  1  0  0  0  0
  6  7  1  0  0  0  0
  6 33  1  0  0  0  0
  7  8  2  0  0  0  0
  7 34  1  0  0  0  0
  8 35  1  0  0  0  0
  9 10  1  0  0  0  0
  9 36  1  0  0  0  0
 10 11  2  0  0  0  0
 10 14  1  0  0  0  0
 11 12  1  0  0  0  0
 11 25  1  0  0  0  0
 12 13  2  0  0  0  0
 13 14  1  0  0  0  0
 13 15  1  0  0  0  0
 15 16  2  0  0  0  0
 15 37  1  0  0  0  0
 16 17  1  0  0  0  0
 16 38  1  0  0  0  0
 17 18  2  0  0  0  0
 17 22  1  0  0  0  0
 18 19  1  0  0  0  0
 18 39  1  0  0  0  0
 19 20  2  0  0  0  0
 19 23  1  0  0  0  0
 20 21  1  0  0  0  0
 20 40  1  0  0  0  0
 21 22  2  0  0  0  0
 21 41  1  0  0  0  0
 22 42  1  0  0  0  0
 23 24  1  0  0  0  0
 24 43  1  0  0  0  0
 24 44  1  0  0  0  0
 24 45  1  0  0  0  0
 25 26  3  0  0  0  0
M  END
