
 OpenBabel10072620223D

 56 59  0  0  0  0  0  0  0  0999 V2000
    2.9345    0.2445    2.4243 C   0  0  0  0  0  0  0  0  0  0  0  0
    3.3765    0.0962    1.0055 C   0  0  0  0  0  0  0  0  0  0  0  0
    3.1689   -0.9926    0.2445 C   0  0  0  0  0  0  0  0  0  0  0  0
    3.9427   -0.7309   -1.0242 C   0  0  0  0  0  0  0  0  0  0  0  0
    4.0269   -1.5359   -1.9419 O   0  0  0  0  0  0  0  0  0  0  0  0
    4.5637    0.5257   -0.8657 N   0  0  0  0  0  0  0  0  0  0  0  0
    4.1275    1.1002    0.3760 N   0  0  0  0  0  0  0  0  0  0  0  0
    3.4825    2.4161    0.2154 C   0  0  0  0  0  0  0  0  0  0  0  0
    5.8335    0.8705   -1.4241 C   0  0  0  0  0  0  0  0  0  0  0  0
    6.3408    0.1950   -2.5433 C   0  0  0  0  0  0  0  0  0  0  0  0
    7.6023    0.4925   -3.0705 C   0  0  0  0  0  0  0  0  0  0  0  0
    8.3790    1.4902   -2.4990 C   0  0  0  0  0  0  0  0  0  0  0  0
    7.8975    2.1812   -1.3945 C   0  0  0  0  0  0  0  0  0  0  0  0
    6.6413    1.8680   -0.8587 C   0  0  0  0  0  0  0  0  0  0  0  0
    2.5888   -2.1662    0.6414 N   0  0  0  0  0  0  0  0  0  0  0  0
    1.9792   -2.8579   -0.2658 C   0  0  0  0  0  0  0  0  0  0  0  0
    1.4483   -4.2060    0.0397 C   0  0  0  0  0  0  0  0  0  0  0  0
    1.6497   -4.7832    1.2984 C   0  0  0  0  0  0  0  0  0  0  0  0
    1.1815   -6.0719    1.5628 C   0  0  0  0  0  0  0  0  0  0  0  0
    0.4795   -6.7653    0.5792 C   0  0  0  0  0  0  0  0  0  0  0  0
    0.2902   -6.2022   -0.6833 C   0  0  0  0  0  0  0  0  0  0  0  0
    0.7798   -4.9212   -0.9571 C   0  0  0  0  0  0  0  0  0  0  0  0
   -0.0021   -8.0767    0.7616 O   0  0  0  0  0  0  0  0  0  0  0  0
   -0.5119   -8.4402    2.0005 C   0  0  0  0  0  0  0  0  0  0  0  0
   -0.6684   -7.7339    2.9843 O   0  0  0  0  0  0  0  0  0  0  0  0
   -0.8455   -9.8802    1.9477 C   0  0  0  0  0  0  0  0  0  0  0  0
   -1.2925  -10.4675    3.0674 C   0  0  0  0  0  0  0  0  0  0  0  0
   -1.6568  -11.8838    3.1291 C   0  0  0  0  0  0  0  0  0  0  0  0
   -0.6553  -12.8129    3.4456 C   0  0  0  0  0  0  0  0  0  0  0  0
   -0.9644  -14.1677    3.5808 C   0  0  0  0  0  0  0  0  0  0  0  0
   -2.2745  -14.6068    3.3996 C   0  0  0  0  0  0  0  0  0  0  0  0
   -3.2768  -13.6932    3.0728 C   0  0  0  0  0  0  0  0  0  0  0  0
   -2.9713  -12.3367    2.9343 C   0  0  0  0  0  0  0  0  0  0  0  0
   -4.2582  -11.2578    2.5235 Cl  0  0  0  0  0  0  0  0  0  0  0  0
    2.5004   -0.6804    2.8181 H   0  0  0  0  0  0  0  0  0  0  0  0
    2.1840    1.0339    2.5250 H   0  0  0  0  0  0  0  0  0  0  0  0
    3.7919    0.4949    3.0573 H   0  0  0  0  0  0  0  0  0  0  0  0
    4.1684    3.1425   -0.2277 H   0  0  0  0  0  0  0  0  0  0  0  0
    3.1747    2.8155    1.1897 H   0  0  0  0  0  0  0  0  0  0  0  0
    2.5952    2.3407   -0.4257 H   0  0  0  0  0  0  0  0  0  0  0  0
    5.7680   -0.5826   -3.0368 H   0  0  0  0  0  0  0  0  0  0  0  0
    7.9799   -0.0673   -3.9209 H   0  0  0  0  0  0  0  0  0  0  0  0
    9.3570    1.7241   -2.9086 H   0  0  0  0  0  0  0  0  0  0  0  0
    8.5036    2.9619   -0.9440 H   0  0  0  0  0  0  0  0  0  0  0  0
    6.3251    2.3966    0.0335 H   0  0  0  0  0  0  0  0  0  0  0  0
    1.8370   -2.4998   -1.3038 H   0  0  0  0  0  0  0  0  0  0  0  0
    2.1910   -4.2469    2.0737 H   0  0  0  0  0  0  0  0  0  0  0  0
    1.3777   -6.5189    2.5328 H   0  0  0  0  0  0  0  0  0  0  0  0
   -0.2157   -6.7670   -1.4599 H   0  0  0  0  0  0  0  0  0  0  0  0
    0.6486   -4.5011   -1.9500 H   0  0  0  0  0  0  0  0  0  0  0  0
   -0.7233  -10.4030    1.0071 H   0  0  0  0  0  0  0  0  0  0  0  0
   -1.4005   -9.9155    4.0003 H   0  0  0  0  0  0  0  0  0  0  0  0
    0.3711  -12.4863    3.6047 H   0  0  0  0  0  0  0  0  0  0  0  0
   -0.1793  -14.8766    3.8337 H   0  0  0  0  0  0  0  0  0  0  0  0
   -2.5159  -15.6597    3.5222 H   0  0  0  0  0  0  0  0  0  0  0  0
   -4.2967  -14.0435    2.9374 H   0  0  0  0  0  0  0  0  0  0  0  0
  1  2  1  0  0  0  0
  1 35  1  0  0  0  0
  1 36  1  0  0  0  0
  1 37  1  0  0  0  0
  2  3  2  0  0  0  0
  2  7  1  0  0  0  0
  3  4  1  0  0  0  0
  3 15  1  0  0  0  0
  4  5  2  0  0  0  0
  4  6  1  0  0  0  0
  6  7  1  0  0  0  0
  6  9  1  0  0  0  0
  7  8  1  0  0  0  0
  8 38  1  0  0  0  0
  8 39  1  0  0  0  0
  8 40  1  0  0  0  0
  9 10  2  0  0  0  0
  9 14  1  0  0  0  0
 10 11  1  0  0  0  0
 10 41  1  0  0  0  0
 11 12  2  0  0  0  0
 11 42  1  0  0  0  0
 12 13  1  0  0  0  0
 12 43  1  0  0  0  0
 13 14  2  0  0  0  0
 13 44  1  0  0  0  0
 14 45  1  0  0  0  0
 15 16  2  3  0  0  0
 16 17  1  0  0  0  0
 16 46  1  0  0  0  0
 17 18  2  0  0  0  0
 17 22  1  0  0  0  0
 18 19  1  0  0  0  0
 18 47  1  0  0  0  0
 19 20  2  0  0  0  0
 19 48  1  0  0  0  0
 20 21  1  0  0  0  0
 20 23  1  0  0  0  0
 21 22  2  0  0  0  0
 21 49  1  0  0  0  0
 22 50  1  0  0  0  0
 23 24  1  0  0  0  0
 24 25  2  0  0  0  0
 24 26  1  0  0  0  0
 26 27  2  0  0  0  0
 26 51  1  0  0  0  0
 27 28  1  0  0  0  0
 27 52  1  0  0  0  0
 28 29  2  0  0  0  0
 28 33  1  0  0  0  0
 29 30  1  0  0  0  0
 29 53  1  0  0  0  0
 30 31  2  0  0  0  0
 30 54  1  0  0  0  0
 31 32  1  0  0  0  0
 31 55  1  0  0  0  0
 32 33  2  0  0  0  0
 32 56  1  0  0  0  0
 33 34  1  0  0  0  0
M  END
