
 OpenBabel10072619423D

 50 51  0  0  0  0  0  0  0  0999 V2000
    1.7316    1.3335   -0.1740 C   0  0  0  0  0  0  0  0  0  0  0  0
    2.8415    0.4042   -0.0005 N   0  0  0  0  0  0  0  0  0  0  0  0
    3.4100    0.2667    1.3340 C   0  0  0  0  0  0  0  0  0  0  0  0
    3.4372   -0.2075   -1.0984 C   0  0  0  0  0  0  0  0  0  0  0  0
    3.0303    0.0666   -2.4164 C   0  0  0  0  0  0  0  0  0  0  0  0
    3.6113   -0.5628   -3.5253 C   0  0  0  0  0  0  0  0  0  0  0  0
    4.6195   -1.5045   -3.3391 C   0  0  0  0  0  0  0  0  0  0  0  0
    5.0545   -1.8004   -2.0527 C   0  0  0  0  0  0  0  0  0  0  0  0
    4.4727   -1.1500   -0.9548 C   0  0  0  0  0  0  0  0  0  0  0  0
    5.2321   -2.2010   -4.4884 C   0  0  0  0  0  0  0  0  0  0  0  0
    4.8264   -1.9810   -5.6940 N   0  0  0  0  0  0  0  0  0  0  0  0
    5.4427   -2.6806   -6.6872 N   0  0  0  0  0  0  0  0  0  0  0  0
    5.0617   -2.4397   -7.9992 C   0  0  0  0  0  0  0  0  0  0  0  0
    4.2062   -1.6347   -8.3540 O   0  0  0  0  0  0  0  0  0  0  0  0
    5.7998   -3.2019   -9.0400 C   0  0  0  0  0  0  0  0  0  0  0  0
    6.2805   -4.5012   -8.8407 C   0  0  0  0  0  0  0  0  0  0  0  0
    6.9484   -5.1664   -9.8790 C   0  0  0  0  0  0  0  0  0  0  0  0
    7.1497   -4.5350  -11.1088 C   0  0  0  0  0  0  0  0  0  0  0  0
    6.6624   -3.2380  -11.3003 C   0  0  0  0  0  0  0  0  0  0  0  0
    5.9789   -2.5811  -10.2803 C   0  0  0  0  0  0  0  0  0  0  0  0
    7.8042   -5.1150  -12.2071 N   0  0  0  0  0  0  0  0  0  0  0  0
    8.3642   -6.3562  -12.3106 C   0  0  0  0  0  0  0  0  0  0  0  0
    8.4149   -7.2122  -11.4321 O   0  0  0  0  0  0  0  0  0  0  0  0
    8.9129   -6.6343  -13.5299 N   0  0  0  0  0  0  0  0  0  0  0  0
    9.0574   -5.7653  -14.6735 C   0  0  0  0  0  0  0  0  0  0  0  0
    9.7108   -6.5404  -15.7638 C   0  0  0  0  0  0  0  0  0  0  0  0
    9.1672   -6.7477  -16.9697 C   0  0  0  0  0  0  0  0  0  0  0  0
    1.3144    1.6575    0.7854 H   0  0  0  0  0  0  0  0  0  0  0  0
    0.9089    0.8635   -0.7243 H   0  0  0  0  0  0  0  0  0  0  0  0
    2.0555    2.2327   -0.7087 H   0  0  0  0  0  0  0  0  0  0  0  0
    2.8907    0.8908    2.0692 H   0  0  0  0  0  0  0  0  0  0  0  0
    4.4617    0.5726    1.3453 H   0  0  0  0  0  0  0  0  0  0  0  0
    3.3324   -0.7678    1.6856 H   0  0  0  0  0  0  0  0  0  0  0  0
    2.2467    0.7911   -2.6191 H   0  0  0  0  0  0  0  0  0  0  0  0
    3.2629   -0.3123   -4.5255 H   0  0  0  0  0  0  0  0  0  0  0  0
    5.8378   -2.5326   -1.8815 H   0  0  0  0  0  0  0  0  0  0  0  0
    4.8457   -1.4145    0.0301 H   0  0  0  0  0  0  0  0  0  0  0  0
    6.0427   -2.9187   -4.2669 H   0  0  0  0  0  0  0  0  0  0  0  0
    6.2139   -3.2955   -6.4594 H   0  0  0  0  0  0  0  0  0  0  0  0
    6.1156   -5.0282   -7.9048 H   0  0  0  0  0  0  0  0  0  0  0  0
    7.2848   -6.1842   -9.7012 H   0  0  0  0  0  0  0  0  0  0  0  0
    6.8034   -2.7249  -12.2482 H   0  0  0  0  0  0  0  0  0  0  0  0
    5.5833   -1.5824  -10.4559 H   0  0  0  0  0  0  0  0  0  0  0  0
    7.8419   -4.5448  -13.0344 H   0  0  0  0  0  0  0  0  0  0  0  0
    9.3067   -7.5643  -13.5746 H   0  0  0  0  0  0  0  0  0  0  0  0
    9.6740   -4.9080  -14.3835 H   0  0  0  0  0  0  0  0  0  0  0  0
    8.0687   -5.3925  -14.9620 H   0  0  0  0  0  0  0  0  0  0  0  0
   10.6944   -6.9499  -15.5472 H   0  0  0  0  0  0  0  0  0  0  0  0
    8.1880   -6.3590  -17.2319 H   0  0  0  0  0  0  0  0  0  0  0  0
    9.6988   -7.3235  -17.7194 H   0  0  0  0  0  0  0  0  0  0  0  0
  1  2  1  0  0  0  0
  1 28  1  0  0  0  0
  1 29  1  0  0  0  0
  1 30  1  0  0  0  0
  2  3  1  0  0  0  0
  2  4  1  0  0  0  0
  3 31  1  0  0  0  0
  3 32  1  0  0  0  0
  3 33  1  0  0  0  0
  4  5  2  0  0  0  0
  4  9  1  0  0  0  0
  5  6  1  0  0  0  0
  5 34  1  0  0  0  0
  6  7  2  0  0  0  0
  6 35  1  0  0  0  0
  7  8  1  0  0  0  0
  7 10  1  0  0  0  0
  8  9  2  0  0  0  0
  8 36  1  0  0  0  0
  9 37  1  0  0  0  0
 10 11  2  0  0  0  0
 10 38  1  0  0  0  0
 11 12  1  0  0  0  0
 12 13  1  0  0  0  0
 12 39  1  0  0  0  0
 13 14  2  0  0  0  0
 13 15  1  0  0  0  0
 15 16  2  0  0  0  0
 15 20  1  0  0  0  0
 16 17  1  0  0  0  0
 16 40  1  0  0  0  0
 17 18  2  0  0  0  0
 17 41  1  0  0  0  0
 18 19  1  0  0  0  0
 18 21  1  0  0  0  0
 19 20  2  0  0  0  0
 19 42  1  0  0  0  0
 20 43  1  0  0  0  0
 21 22  1  0  0  0  0
 21 44  1  0  0  0  0
 22 23  2  0  0  0  0
 22 24  1  0  0  0  0
 24 25  1  0  0  0  0
 24 45  1  0  0  0  0
 25 26  1  0  0  0  0
 25 46  1  0  0  0  0
 25 47  1  0  0  0  0
 26 27  2  0  0  0  0
 26 48  1  0  0  0  0
 27 49  1  0  0  0  0
 27 50  1  0  0  0  0
M  END
