
 OpenBabel10072619583D

 50 54  0  0  0  0  0  0  0  0999 V2000
   -4.0131    0.6851    0.1633 C   0  0  0  0  0  0  0  0  0  0  0  0
   -2.6841    0.0306    0.1010 C   0  0  0  0  0  0  0  0  0  0  0  0
   -2.2760   -1.2948    0.0368 C   0  0  0  0  0  0  0  0  0  0  0  0
   -0.8405   -1.2484   -0.0415 C   0  0  0  0  0  0  0  0  0  0  0  0
   -0.4934    0.0988   -0.0206 C   0  0  0  0  0  0  0  0  0  0  0  0
   -1.6132    0.8666    0.0822 O   0  0  0  0  0  0  0  0  0  0  0  0
    0.8310    0.5802   -0.1052 C   0  0  0  0  0  0  0  0  0  0  0  0
    1.0851    1.9658   -0.0817 C   0  0  0  0  0  0  0  0  0  0  0  0
    2.3942    2.4319   -0.1630 C   0  0  0  0  0  0  0  0  0  0  0  0
    3.4467    1.5255   -0.2628 C   0  0  0  0  0  0  0  0  0  0  0  0
    3.1956    0.1476   -0.2909 C   0  0  0  0  0  0  0  0  0  0  0  0
    1.8793   -0.3652   -0.2132 C   0  0  0  0  0  0  0  0  0  0  0  0
    1.5458   -1.7406   -0.2339 C   0  0  0  0  0  0  0  0  0  0  0  0
    0.2102   -2.1821   -0.1488 C   0  0  0  0  0  0  0  0  0  0  0  0
    2.5465   -2.7598   -0.3306 N   0  0  0  0  0  0  0  0  0  0  0  0
    3.2791   -3.3092    1.0937 S   0  0  0  0  0  0  0  0  0  0  0  0
    4.3011   -4.2482    0.6815 O   0  0  0  0  0  0  0  0  0  0  0  0
    3.6097   -2.1769    1.9308 O   0  0  0  0  0  0  0  0  0  0  0  0
    1.9846   -4.2394    1.8743 C   0  0  0  0  0  0  0  0  0  0  0  0
    1.2875   -3.6699    2.9445 C   0  0  0  0  0  0  0  0  0  0  0  0
    0.2774   -4.3953    3.5907 C   0  0  0  0  0  0  0  0  0  0  0  0
   -0.4348   -3.8466    4.6673 C   0  0  0  0  0  0  0  0  0  0  0  0
   -1.4211   -4.5876    5.3187 C   0  0  0  0  0  0  0  0  0  0  0  0
   -1.7096   -5.8830    4.8991 C   0  0  0  0  0  0  0  0  0  0  0  0
   -1.0155   -6.4410    3.8248 C   0  0  0  0  0  0  0  0  0  0  0  0
   -0.0200   -5.7106    3.1586 C   0  0  0  0  0  0  0  0  0  0  0  0
    0.6932   -6.2641    2.0816 C   0  0  0  0  0  0  0  0  0  0  0  0
    1.6976   -5.5350    1.4411 C   0  0  0  0  0  0  0  0  0  0  0  0
   -3.2042   -2.4250    0.0318 C   0  0  0  0  0  0  0  0  0  0  0  0
   -4.4214   -2.2527   -0.0595 O   0  0  0  0  0  0  0  0  0  0  0  0
   -2.6638   -3.8271    0.1186 C   0  0  0  0  0  0  0  0  0  0  0  0
   -4.5869    0.4659   -0.7429 H   0  0  0  0  0  0  0  0  0  0  0  0
   -3.9217    1.7732    0.2446 H   0  0  0  0  0  0  0  0  0  0  0  0
   -4.5827    0.3316    1.0285 H   0  0  0  0  0  0  0  0  0  0  0  0
    0.2678    2.6789    0.0030 H   0  0  0  0  0  0  0  0  0  0  0  0
    2.5944    3.5004   -0.1373 H   0  0  0  0  0  0  0  0  0  0  0  0
    4.4707    1.8904   -0.3065 H   0  0  0  0  0  0  0  0  0  0  0  0
    4.0517   -0.5215   -0.3538 H   0  0  0  0  0  0  0  0  0  0  0  0
    0.0032   -3.2462   -0.1843 H   0  0  0  0  0  0  0  0  0  0  0  0
    3.2313   -2.6678   -1.0812 H   0  0  0  0  0  0  0  0  0  0  0  0
    1.5360   -2.6632    3.2782 H   0  0  0  0  0  0  0  0  0  0  0  0
   -0.2176   -2.8384    5.0144 H   0  0  0  0  0  0  0  0  0  0  0  0
   -1.9590   -4.1540    6.1579 H   0  0  0  0  0  0  0  0  0  0  0  0
   -2.4678   -6.4648    5.4166 H   0  0  0  0  0  0  0  0  0  0  0  0
   -1.2517   -7.4578    3.5188 H   0  0  0  0  0  0  0  0  0  0  0  0
    0.4778   -7.2769    1.7445 H   0  0  0  0  0  0  0  0  0  0  0  0
    2.2552   -5.9853    0.6227 H   0  0  0  0  0  0  0  0  0  0  0  0
   -2.1328   -4.0790   -0.8024 H   0  0  0  0  0  0  0  0  0  0  0  0
   -3.4943   -4.5292    0.2414 H   0  0  0  0  0  0  0  0  0  0  0  0
   -2.0088   -3.9278    0.9869 H   0  0  0  0  0  0  0  0  0  0  0  0
  1  2  1  0  0  0  0
  1 32  1  0  0  0  0
  1 33  1  0  0  0  0
  1 34  1  0  0  0  0
  2  3  2  0  0  0  0
  2  6  1  0  0  0  0
  3  4  1  0  0  0  0
  3 29  1  0  0  0  0
  4  5  2  0  0  0  0
  4 14  1  0  0  0  0
  5  6  1  0  0  0  0
  5  7  1  0  0  0  0
  7  8  2  0  0  0  0
  7 12  1  0  0  0  0
  8  9  1  0  0  0  0
  8 35  1  0  0  0  0
  9 10  2  0  0  0  0
  9 36  1  0  0  0  0
 10 11  1  0  0  0  0
 10 37  1  0  0  0  0
 11 12  2  0  0  0  0
 11 38  1  0  0  0  0
 12 13  1  0  0  0  0
 13 14  2  0  0  0  0
 13 15  1  0  0  0  0
 14 39  1  0  0  0  0
 15 16  1  0  0  0  0
 15 40  1  0  0  0  0
 16 17  2  0  0  0  0
 16 18  2  0  0  0  0
 16 19  1  0  0  0  0
 19 20  2  0  0  0  0
 19 28  1  0  0  0  0
 20 21  1  0  0  0  0
 20 41  1  0  0  0  0
 21 22  2  0  0  0  0
 21 26  1  0  0  0  0
 22 23  1  0  0  0  0
 22 42  1  0  0  0  0
 23 24  2  0  0  0  0
 23 43  1  0  0  0  0
 24 25  1  0  0  0  0
 24 44  1  0  0  0  0
 25 26  2  0  0  0  0
 25 45  1  0  0  0  0
 26 27  1  0  0  0  0
 27 28  2  0  0  0  0
 27 46  1  0  0  0  0
 28 47  1  0  0  0  0
 29 30  2  0  0  0  0
 29 31  1  0  0  0  0
 31 48  1  0  0  0  0
 31 49  1  0  0  0  0
 31 50  1  0  0  0  0
M  END
