
 OpenBabel10072620223D

 57 60  0  0  0  0  0  0  0  0999 V2000
   -1.3748    1.6102   -0.8443 C   0  0  0  0  0  0  0  0  0  0  0  0
   -0.4349    0.4917   -0.4745 C   0  0  0  0  0  0  0  0  0  0  0  0
    0.9099    0.7199   -0.1083 C   0  0  0  0  0  0  0  0  0  0  0  0
    1.7230   -0.3779    0.2098 C   0  0  0  0  0  0  0  0  0  0  0  0
    1.2286   -1.6943    0.1900 C   0  0  0  0  0  0  0  0  0  0  0  0
   -0.1077   -1.8966   -0.1726 C   0  0  0  0  0  0  0  0  0  0  0  0
   -0.9303   -0.8200   -0.4967 C   0  0  0  0  0  0  0  0  0  0  0  0
    2.0652   -2.8711    0.4867 C   0  0  0  0  0  0  0  0  0  0  0  0
    1.8629   -4.0607   -0.0448 N   0  0  0  0  0  0  0  0  0  0  0  0
    2.7778   -4.9745    0.4470 C   0  0  0  0  0  0  0  0  0  0  0  0
    2.8626   -6.3346    0.0856 C   0  0  0  0  0  0  0  0  0  0  0  0
    3.8328   -7.1523    0.6740 C   0  0  0  0  0  0  0  0  0  0  0  0
    4.7139   -6.6317    1.6165 C   0  0  0  0  0  0  0  0  0  0  0  0
    4.6521   -5.2848    1.9894 C   0  0  0  0  0  0  0  0  0  0  0  0
    3.6761   -4.4720    1.3879 C   0  0  0  0  0  0  0  0  0  0  0  0
    3.3526   -2.7993    1.6276 S   0  0  0  0  0  0  0  0  0  0  0  0
    1.3988    2.0472   -0.1563 N   0  0  0  0  0  0  0  0  0  0  0  0
    2.4819    2.6653    0.4209 C   0  0  0  0  0  0  0  0  0  0  0  0
    3.5090    2.1174    1.6204 S   0  0  0  0  0  0  0  0  0  0  0  0
    2.7328    3.9491   -0.0431 N   0  0  0  0  0  0  0  0  0  0  0  0
    2.0660    4.6603   -1.0329 C   0  0  0  0  0  0  0  0  0  0  0  0
    0.9919    4.3005   -1.5077 O   0  0  0  0  0  0  0  0  0  0  0  0
    2.6825    5.9459   -1.4653 C   0  0  0  0  0  0  0  0  0  0  0  0
    4.0565    6.1967   -1.3582 C   0  0  0  0  0  0  0  0  0  0  0  0
    4.6031    7.4281   -1.7658 C   0  0  0  0  0  0  0  0  0  0  0  0
    3.7654    8.4088   -2.3373 C   0  0  0  0  0  0  0  0  0  0  0  0
    2.3946    8.1126   -2.4945 C   0  0  0  0  0  0  0  0  0  0  0  0
    1.8559    6.9078   -2.0400 C   0  0  0  0  0  0  0  0  0  0  0  0
    1.4694    8.9754   -3.0318 O   0  0  0  0  0  0  0  0  0  0  0  0
    1.8253    9.4590   -4.3265 C   0  0  0  0  0  0  0  0  0  0  0  0
    4.1231    9.6661   -2.7516 O   0  0  0  0  0  0  0  0  0  0  0  0
    5.4665   10.1036   -2.6351 C   0  0  0  0  0  0  0  0  0  0  0  0
    5.9442    7.6917   -1.6648 O   0  0  0  0  0  0  0  0  0  0  0  0
    6.7240    6.9011   -0.7758 C   0  0  0  0  0  0  0  0  0  0  0  0
   -1.4111    2.3591   -0.0461 H   0  0  0  0  0  0  0  0  0  0  0  0
   -2.3977    1.2453   -0.9899 H   0  0  0  0  0  0  0  0  0  0  0  0
   -1.0547    2.0781   -1.7805 H   0  0  0  0  0  0  0  0  0  0  0  0
    2.7780   -0.2317    0.4075 H   0  0  0  0  0  0  0  0  0  0  0  0
   -0.5152   -2.9057   -0.2116 H   0  0  0  0  0  0  0  0  0  0  0  0
   -1.9635   -1.0157   -0.7750 H   0  0  0  0  0  0  0  0  0  0  0  0
    2.1701   -6.7362   -0.6474 H   0  0  0  0  0  0  0  0  0  0  0  0
    3.8938   -8.2011    0.3927 H   0  0  0  0  0  0  0  0  0  0  0  0
    5.4609   -7.2798    2.0704 H   0  0  0  0  0  0  0  0  0  0  0  0
    5.3391   -4.8797    2.7262 H   0  0  0  0  0  0  0  0  0  0  0  0
    0.8072    2.7000   -0.6724 H   0  0  0  0  0  0  0  0  0  0  0  0
    3.5193    4.3804    0.4204 H   0  0  0  0  0  0  0  0  0  0  0  0
    4.7099    5.4125   -0.9931 H   0  0  0  0  0  0  0  0  0  0  0  0
    0.7893    6.7235   -2.1577 H   0  0  0  0  0  0  0  0  0  0  0  0
    0.9032    9.5534   -4.9085 H   0  0  0  0  0  0  0  0  0  0  0  0
    2.4945    8.7817   -4.8708 H   0  0  0  0  0  0  0  0  0  0  0  0
    2.2695   10.4553   -4.2431 H   0  0  0  0  0  0  0  0  0  0  0  0
    5.5144   11.1265   -3.0223 H   0  0  0  0  0  0  0  0  0  0  0  0
    6.1358    9.4980   -3.2536 H   0  0  0  0  0  0  0  0  0  0  0  0
    5.7849   10.1400   -1.5886 H   0  0  0  0  0  0  0  0  0  0  0  0
    7.6943    7.3929   -0.6563 H   0  0  0  0  0  0  0  0  0  0  0  0
    6.9035    5.9080   -1.1992 H   0  0  0  0  0  0  0  0  0  0  0  0
    6.2606    6.8336    0.2141 H   0  0  0  0  0  0  0  0  0  0  0  0
  1  2  1  0  0  0  0
  1 35  1  0  0  0  0
  1 36  1  0  0  0  0
  1 37  1  0  0  0  0
  2  3  2  0  0  0  0
  2  7  1  0  0  0  0
  3  4  1  0  0  0  0
  3 17  1  0  0  0  0
  4  5  2  0  0  0  0
  4 38  1  0  0  0  0
  5  6  1  0  0  0  0
  5  8  1  0  0  0  0
  6  7  2  0  0  0  0
  6 39  1  0  0  0  0
  7 40  1  0  0  0  0
  8  9  2  0  0  0  0
  8 16  1  0  0  0  0
  9 10  1  0  0  0  0
 10 11  2  0  0  0  0
 10 15  1  0  0  0  0
 11 12  1  0  0  0  0
 11 41  1  0  0  0  0
 12 13  2  0  0  0  0
 12 42  1  0  0  0  0
 13 14  1  0  0  0  0
 13 43  1  0  0  0  0
 14 15  2  0  0  0  0
 14 44  1  0  0  0  0
 15 16  1  0  0  0  0
 17 18  1  0  0  0  0
 17 45  1  0  0  0  0
 18 19  2  0  0  0  0
 18 20  1  0  0  0  0
 20 21  1  0  0  0  0
 20 46  1  0  0  0  0
 21 22  2  0  0  0  0
 21 23  1  0  0  0  0
 23 24  2  0  0  0  0
 23 28  1  0  0  0  0
 24 25  1  0  0  0  0
 24 47  1  0  0  0  0
 25 26  2  0  0  0  0
 25 33  1  0  0  0  0
 26 27  1  0  0  0  0
 26 31  1  0  0  0  0
 27 28  2  0  0  0  0
 27 29  1  0  0  0  0
 28 48  1  0  0  0  0
 29 30  1  0  0  0  0
 30 49  1  0  0  0  0
 30 50  1  0  0  0  0
 30 51  1  0  0  0  0
 31 32  1  0  0  0  0
 32 52  1  0  0  0  0
 32 53  1  0  0  0  0
 32 54  1  0  0  0  0
 33 34  1  0  0  0  0
 34 55  1  0  0  0  0
 34 56  1  0  0  0  0
 34 57  1  0  0  0  0
M  END
