
 OpenBabel10072620203D

 71 73  0  0  0  0  0  0  0  0999 V2000
    3.6263   -0.0653   -3.3898 C   0  0  0  0  0  0  0  0  0  0  0  0
    2.6956    0.8925   -2.6533 C   0  0  0  0  0  0  0  0  0  0  0  0
    2.9432    1.0324   -1.1202 C   0  0  0  0  0  0  0  0  0  0  0  0
    4.4706    1.2631   -0.8360 C   0  0  0  0  0  0  0  0  0  0  0  0
    5.1297    2.4570   -1.5244 C   0  0  0  0  0  0  0  0  0  0  0  0
    2.1507    2.2959   -0.6430 C   0  0  0  0  0  0  0  0  0  0  0  0
    0.7272    2.2147   -0.9182 N   0  0  0  0  0  0  0  0  0  0  0  0
   -0.0530    3.3288   -0.9523 C   0  0  0  0  0  0  0  0  0  0  0  0
    0.3893    4.4683   -0.8250 O   0  0  0  0  0  0  0  0  0  0  0  0
   -1.3873    3.1416   -1.2090 N   0  0  0  0  0  0  0  0  0  0  0  0
   -1.9380    1.9664   -1.7650 C   0  0  0  0  0  0  0  0  0  0  0  0
   -2.3789    0.9363   -0.8986 C   0  0  0  0  0  0  0  0  0  0  0  0
   -3.0289   -0.1736   -1.4639 C   0  0  0  0  0  0  0  0  0  0  0  0
   -3.2350   -0.2666   -2.8366 C   0  0  0  0  0  0  0  0  0  0  0  0
   -2.7949    0.7505   -3.6759 C   0  0  0  0  0  0  0  0  0  0  0  0
   -2.1406    1.8843   -3.1623 C   0  0  0  0  0  0  0  0  0  0  0  0
   -1.6509    2.9570   -4.1283 C   0  0  0  0  0  0  0  0  0  0  0  0
   -0.6214    2.4012   -5.1171 C   0  0  0  0  0  0  0  0  0  0  0  0
   -2.8165    3.6131   -4.8714 C   0  0  0  0  0  0  0  0  0  0  0  0
   -2.2581    1.0524    0.6178 C   0  0  0  0  0  0  0  0  0  0  0  0
   -3.5329    1.6590    1.2086 C   0  0  0  0  0  0  0  0  0  0  0  0
   -1.9205   -0.2684    1.3191 C   0  0  0  0  0  0  0  0  0  0  0  0
    2.4689   -0.1849   -0.2695 C   0  0  0  0  0  0  0  0  0  0  0  0
    2.6417   -0.2468    1.1096 C   0  0  0  0  0  0  0  0  0  0  0  0
    2.1240   -1.4129    1.5898 N   0  0  0  0  0  0  0  0  0  0  0  0
    1.5815   -2.1446    0.5606 C   0  0  0  0  0  0  0  0  0  0  0  0
    0.9438   -3.3992    0.5822 C   0  0  0  0  0  0  0  0  0  0  0  0
    0.4729   -3.9279   -0.6186 C   0  0  0  0  0  0  0  0  0  0  0  0
    0.6116   -3.2150   -1.8000 C   0  0  0  0  0  0  0  0  0  0  0  0
    1.2458   -1.9649   -1.8102 C   0  0  0  0  0  0  0  0  0  0  0  0
    1.7632   -1.4015   -0.6188 C   0  0  0  0  0  0  0  0  0  0  0  0
    2.1357   -1.8040    2.9837 C   0  0  0  0  0  0  0  0  0  0  0  0
    3.2492   -0.2381   -4.4023 H   0  0  0  0  0  0  0  0  0  0  0  0
    3.7160   -1.0315   -2.8882 H   0  0  0  0  0  0  0  0  0  0  0  0
    4.6302    0.3581   -3.4883 H   0  0  0  0  0  0  0  0  0  0  0  0
    1.6533    0.6154   -2.8491 H   0  0  0  0  0  0  0  0  0  0  0  0
    2.8089    1.8746   -3.1328 H   0  0  0  0  0  0  0  0  0  0  0  0
    5.0255    0.3545   -1.1048 H   0  0  0  0  0  0  0  0  0  0  0  0
    4.6308    1.3952    0.2415 H   0  0  0  0  0  0  0  0  0  0  0  0
    4.9643    2.4750   -2.6046 H   0  0  0  0  0  0  0  0  0  0  0  0
    6.2115    2.4143   -1.3590 H   0  0  0  0  0  0  0  0  0  0  0  0
    4.7773    3.4039   -1.1051 H   0  0  0  0  0  0  0  0  0  0  0  0
    2.5327    3.1971   -1.1343 H   0  0  0  0  0  0  0  0  0  0  0  0
    2.2579    2.4579    0.4366 H   0  0  0  0  0  0  0  0  0  0  0  0
    0.2634    1.3417   -0.7096 H   0  0  0  0  0  0  0  0  0  0  0  0
   -1.7549    4.0120   -1.5738 H   0  0  0  0  0  0  0  0  0  0  0  0
   -3.4110   -0.9717   -0.8335 H   0  0  0  0  0  0  0  0  0  0  0  0
   -3.7514   -1.1291   -3.2505 H   0  0  0  0  0  0  0  0  0  0  0  0
   -2.9738    0.6533   -4.7443 H   0  0  0  0  0  0  0  0  0  0  0  0
   -1.1417    3.7559   -3.5804 H   0  0  0  0  0  0  0  0  0  0  0  0
   -1.0412    1.6239   -5.7644 H   0  0  0  0  0  0  0  0  0  0  0  0
    0.2331    1.9672   -4.5877 H   0  0  0  0  0  0  0  0  0  0  0  0
   -0.2445    3.2013   -5.7625 H   0  0  0  0  0  0  0  0  0  0  0  0
   -3.3128    2.9179   -5.5573 H   0  0  0  0  0  0  0  0  0  0  0  0
   -2.4600    4.4640   -5.4618 H   0  0  0  0  0  0  0  0  0  0  0  0
   -3.5680    3.9842   -4.1665 H   0  0  0  0  0  0  0  0  0  0  0  0
   -1.4294    1.7246    0.8640 H   0  0  0  0  0  0  0  0  0  0  0  0
   -4.4182    1.0502    0.9912 H   0  0  0  0  0  0  0  0  0  0  0  0
   -3.7109    2.6619    0.8052 H   0  0  0  0  0  0  0  0  0  0  0  0
   -3.4441    1.7484    2.2962 H   0  0  0  0  0  0  0  0  0  0  0  0
   -2.7583   -0.9738    1.3138 H   0  0  0  0  0  0  0  0  0  0  0  0
   -1.6630   -0.0803    2.3673 H   0  0  0  0  0  0  0  0  0  0  0  0
   -1.0632   -0.7544    0.8450 H   0  0  0  0  0  0  0  0  0  0  0  0
    3.1016    0.4644    1.7831 H   0  0  0  0  0  0  0  0  0  0  0  0
    0.8135   -3.9479    1.5100 H   0  0  0  0  0  0  0  0  0  0  0  0
   -0.0139   -4.9007   -0.6251 H   0  0  0  0  0  0  0  0  0  0  0  0
    0.2266   -3.6243   -2.7307 H   0  0  0  0  0  0  0  0  0  0  0  0
    1.3277   -1.4572   -2.7642 H   0  0  0  0  0  0  0  0  0  0  0  0
    2.5072   -0.9757    3.5943 H   0  0  0  0  0  0  0  0  0  0  0  0
    2.7947   -2.6694    3.0918 H   0  0  0  0  0  0  0  0  0  0  0  0
    1.1154   -2.0526    3.2893 H   0  0  0  0  0  0  0  0  0  0  0  0
  1  2  1  0  0  0  0
  1 33  1  0  0  0  0
  1 34  1  0  0  0  0
  1 35  1  0  0  0  0
  2  3  1  0  0  0  0
  2 36  1  0  0  0  0
  2 37  1  0  0  0  0
  3  4  1  0  0  0  0
  3  6  1  0  0  0  0
  3 23  1  0  0  0  0
  4  5  1  0  0  0  0
  4 38  1  0  0  0  0
  4 39  1  0  0  0  0
  5 40  1  0  0  0  0
  5 41  1  0  0  0  0
  5 42  1  0  0  0  0
  6  7  1  0  0  0  0
  6 43  1  0  0  0  0
  6 44  1  0  0  0  0
  7  8  1  0  0  0  0
  7 45  1  0  0  0  0
  8  9  2  0  0  0  0
  8 10  1  0  0  0  0
 10 11  1  0  0  0  0
 10 46  1  0  0  0  0
 11 12  2  0  0  0  0
 11 16  1  0  0  0  0
 12 13  1  0  0  0  0
 12 20  1  0  0  0  0
 13 14  2  0  0  0  0
 13 47  1  0  0  0  0
 14 15  1  0  0  0  0
 14 48  1  0  0  0  0
 15 16  2  0  0  0  0
 15 49  1  0  0  0  0
 16 17  1  0  0  0  0
 17 18  1  0  0  0  0
 17 19  1  0  0  0  0
 17 50  1  0  0  0  0
 18 51  1  0  0  0  0
 18 52  1  0  0  0  0
 18 53  1  0  0  0  0
 19 54  1  0  0  0  0
 19 55  1  0  0  0  0
 19 56  1  0  0  0  0
 20 21  1  0  0  0  0
 20 22  1  0  0  0  0
 20 57  1  0  0  0  0
 21 58  1  0  0  0  0
 21 59  1  0  0  0  0
 21 60  1  0  0  0  0
 22 61  1  0  0  0  0
 22 62  1  0  0  0  0
 22 63  1  0  0  0  0
 23 24  2  0  0  0  0
 23 31  1  0  0  0  0
 24 25  1  0  0  0  0
 24 64  1  0  0  0  0
 25 26  1  0  0  0  0
 25 32  1  0  0  0  0
 26 27  2  0  0  0  0
 26 31  1  0  0  0  0
 27 28  1  0  0  0  0
 27 65  1  0  0  0  0
 28 29  2  0  0  0  0
 28 66  1  0  0  0  0
 29 30  1  0  0  0  0
 29 67  1  0  0  0  0
 30 31  2  0  0  0  0
 30 68  1  0  0  0  0
 32 69  1  0  0  0  0
 32 70  1  0  0  0  0
 32 71  1  0  0  0  0
M  END
