
 OpenBabel10072620043D

 26 27  0  0  0  0  0  0  0  0999 V2000
    1.1532   -0.1854   -0.6760 C   0  0  0  0  0  0  0  0  0  0  0  0
    0.3542   -1.3031   -0.4088 C   0  0  0  0  0  0  0  0  0  0  0  0
   -0.8989   -1.1284    0.1911 C   0  0  0  0  0  0  0  0  0  0  0  0
   -1.3534    0.1531    0.5239 C   0  0  0  0  0  0  0  0  0  0  0  0
   -0.5446    1.2634    0.2547 C   0  0  0  0  0  0  0  0  0  0  0  0
    0.7155    1.1085   -0.3478 C   0  0  0  0  0  0  0  0  0  0  0  0
    1.5604    2.2657   -0.6311 C   0  0  0  0  0  0  0  0  0  0  0  0
    1.2477    3.5197   -0.2840 N   0  0  0  0  0  0  0  0  0  0  0  0
    2.3241    4.2649   -0.7495 O   0  0  0  0  0  0  0  0  0  0  0  0
    3.2127    3.3961   -1.3443 C   0  0  0  0  0  0  0  0  0  0  0  0
    2.7639    2.1528   -1.2893 N   0  0  0  0  0  0  0  0  0  0  0  0
    4.3523    3.8804   -1.8962 N   0  0  0  0  0  0  0  0  0  0  0  0
    5.2494    3.0490   -2.2984 C   0  0  0  0  0  0  0  0  0  0  0  0
    5.2846    1.6940   -2.2528 N   0  0  0  0  0  0  0  0  0  0  0  0
    6.3947    3.5018   -2.8647 N   0  0  0  0  0  0  0  0  0  0  0  0
   -1.7415   -2.2976    0.4734 N   0  3  0  0  0  0  0  0  0  0  0  0
   -1.2995   -3.4134    0.1641 O   0  0  0  0  0  0  0  0  0  0  0  0
   -2.8439   -2.1001    1.0034 O   0  5  0  0  0  0  0  0  0  0  0  0
    2.1257   -0.3349   -1.1422 H   0  0  0  0  0  0  0  0  0  0  0  0
    0.7224   -2.2928   -0.6731 H   0  0  0  0  0  0  0  0  0  0  0  0
   -2.3252    0.3070    0.9894 H   0  0  0  0  0  0  0  0  0  0  0  0
   -0.9114    2.2547    0.5195 H   0  0  0  0  0  0  0  0  0  0  0  0
    4.3783    1.2953   -2.0069 H   0  0  0  0  0  0  0  0  0  0  0  0
    5.6335    1.2862   -3.1126 H   0  0  0  0  0  0  0  0  0  0  0  0
    6.4904    4.5060   -2.7472 H   0  0  0  0  0  0  0  0  0  0  0  0
    7.2154    3.0171   -2.5203 H   0  0  0  0  0  0  0  0  0  0  0  0
  1  2  2  0  0  0  0
  1  6  1  0  0  0  0
  1 19  1  0  0  0  0
  2  3  1  0  0  0  0
  2 20  1  0  0  0  0
  3  4  2  0  0  0  0
  3 16  1  0  0  0  0
  4  5  1  0  0  0  0
  4 21  1  0  0  0  0
  5  6  2  0  0  0  0
  5 22  1  0  0  0  0
  6  7  1  0  0  0  0
  7  8  2  0  0  0  0
  7 11  1  0  0  0  0
  8  9  1  0  0  0  0
  9 10  1  0  0  0  0
 10 11  2  0  0  0  0
 10 12  1  0  0  0  0
 12 13  2  0  0  0  0
 13 14  1  0  0  0  0
 13 15  1  0  0  0  0
 14 23  1  0  0  0  0
 14 24  1  0  0  0  0
 15 25  1  0  0  0  0
 15 26  1  0  0  0  0
 16 17  2  0  0  0  0
 16 18  1  0  0  0  0
M  CHG  2  16   1  18  -1
M  END
