
 OpenBabel10072616323D

 44 43  0  0  0  0  0  0  0  0999 V2000
    1.2893    1.1940    2.4970 C   0  0  0  0  0  0  0  0  0  0  0  0
    0.3214    0.5328    1.6512 N   0  0  0  0  0  0  0  0  0  0  0  0
   -0.9714    0.2492    1.9487 C   0  0  0  0  0  0  0  0  0  0  0  0
   -1.6210   -0.5121    1.2374 O   0  0  0  0  0  0  0  0  0  0  0  0
   -1.4762    0.8549    3.0569 N   0  0  0  0  0  0  0  0  0  0  0  0
   -2.8527    0.6599    3.4526 C   0  0  0  0  0  0  0  0  0  0  0  0
   -3.8359    1.9201    2.7246 P   0  3  0  0  0  0  0  0  0  0  0  0
   -3.6599    1.9935    0.9794 C   0  0  0  0  0  0  0  0  0  0  0  0
   -4.0338    0.7212    0.4736 O   0  0  0  0  0  0  0  0  0  0  0  0
   -5.5288    1.5811    3.0758 C   0  0  0  0  0  0  0  0  0  0  0  0
   -5.6673    1.6751    4.4855 O   0  0  0  0  0  0  0  0  0  0  0  0
   -3.4252    3.4830    3.4184 C   0  0  0  0  0  0  0  0  0  0  0  0
   -2.0470    3.7067    3.1357 O   0  0  0  0  0  0  0  0  0  0  0  0
    2.7736    1.4115    1.5852 P   0  3  0  0  0  0  0  0  0  0  0  0
    2.5064    2.3203    0.1075 C   0  0  0  0  0  0  0  0  0  0  0  0
    2.0244    3.5979    0.5073 O   0  0  0  0  0  0  0  0  0  0  0  0
    3.9398    2.2701    2.5857 C   0  0  0  0  0  0  0  0  0  0  0  0
    3.3489    3.5095    2.9439 O   0  0  0  0  0  0  0  0  0  0  0  0
    3.4705   -0.1537    1.1829 C   0  0  0  0  0  0  0  0  0  0  0  0
    2.5330   -0.7844    0.3240 O   0  0  0  0  0  0  0  0  0  0  0  0
    1.4432    0.5746    3.3856 H   0  0  0  0  0  0  0  0  0  0  0  0
    0.8830    2.1559    2.8193 H   0  0  0  0  0  0  0  0  0  0  0  0
    0.6884   -0.0661    0.9125 H   0  0  0  0  0  0  0  0  0  0  0  0
   -1.1136    1.7818    3.2466 H   0  0  0  0  0  0  0  0  0  0  0  0
   -2.8843    0.7223    4.5442 H   0  0  0  0  0  0  0  0  0  0  0  0
   -3.1882   -0.3390    3.1577 H   0  0  0  0  0  0  0  0  0  0  0  0
   -2.6449    2.2317    0.6487 H   0  0  0  0  0  0  0  0  0  0  0  0
   -4.3348    2.7397    0.5497 H   0  0  0  0  0  0  0  0  0  0  0  0
   -3.2688    0.1215    0.6301 H   0  0  0  0  0  0  0  0  0  0  0  0
   -5.8150    0.5752    2.7565 H   0  0  0  0  0  0  0  0  0  0  0  0
   -6.1956    2.3105    2.6080 H   0  0  0  0  0  0  0  0  0  0  0  0
   -6.5780    1.4001    4.6952 H   0  0  0  0  0  0  0  0  0  0  0  0
   -3.5619    3.4973    4.5030 H   0  0  0  0  0  0  0  0  0  0  0  0
   -4.0110    4.2911    2.9722 H   0  0  0  0  0  0  0  0  0  0  0  0
   -1.8284    4.5782    3.5135 H   0  0  0  0  0  0  0  0  0  0  0  0
    1.7829    1.8573   -0.5693 H   0  0  0  0  0  0  0  0  0  0  0  0
    3.4410    2.4677   -0.4401 H   0  0  0  0  0  0  0  0  0  0  0  0
    1.0603    3.4991    0.6300 H   0  0  0  0  0  0  0  0  0  0  0  0
    4.8764    2.4662    2.0565 H   0  0  0  0  0  0  0  0  0  0  0  0
    4.1673    1.7214    3.5038 H   0  0  0  0  0  0  0  0  0  0  0  0
    3.0383    3.9286    2.1116 H   0  0  0  0  0  0  0  0  0  0  0  0
    3.6162   -0.7737    2.0715 H   0  0  0  0  0  0  0  0  0  0  0  0
    4.4215   -0.0515    0.6537 H   0  0  0  0  0  0  0  0  0  0  0  0
    2.8823   -1.6703    0.1163 H   0  0  0  0  0  0  0  0  0  0  0  0
  1  2  1  0  0  0  0
  1 14  1  0  0  0  0
  1 21  1  0  0  0  0
  1 22  1  0  0  0  0
  2  3  1  0  0  0  0
  2 23  1  0  0  0  0
  3  4  2  0  0  0  0
  3  5  1  0  0  0  0
  5  6  1  0  0  0  0
  5 24  1  0  0  0  0
  6  7  1  0  0  0  0
  6 25  1  0  0  0  0
  6 26  1  0  0  0  0
  7  8  1  0  0  0  0
  7 10  1  0  0  0  0
  7 12  1  0  0  0  0
  8  9  1  0  0  0  0
  8 27  1  0  0  0  0
  8 28  1  0  0  0  0
  9 29  1  0  0  0  0
 10 11  1  0  0  0  0
 10 30  1  0  0  0  0
 10 31  1  0  0  0  0
 11 32  1  0  0  0  0
 12 13  1  0  0  0  0
 12 33  1  0  0  0  0
 12 34  1  0  0  0  0
 13 35  1  0  0  0  0
 14 15  1  0  0  0  0
 14 17  1  0  0  0  0
 14 19  1  0  0  0  0
 15 16  1  0  0  0  0
 15 36  1  0  0  0  0
 15 37  1  0  0  0  0
 16 38  1  0  0  0  0
 17 18  1  0  0  0  0
 17 39  1  0  0  0  0
 17 40  1  0  0  0  0
 18 41  1  0  0  0  0
 19 20  1  0  0  0  0
 19 42  1  0  0  0  0
 19 43  1  0  0  0  0
 20 44  1  0  0  0  0
M  CHG  2   7   1  14   1
M  END
