
 OpenBabel10072620103D

 50 54  0  0  1  0  0  0  0  0999 V2000
   -7.1803   -2.8399    4.0654 C   0  0  0  0  0  0  0  0  0  0  0  0
   -6.9321   -2.0384    2.8226 C   0  0  0  0  0  0  0  0  0  0  0  0
   -7.7735   -0.9740    2.4761 C   0  0  0  0  0  0  0  0  0  0  0  0
   -7.6024   -0.3120    1.2623 C   0  0  0  0  0  0  0  0  0  0  0  0
   -6.5713   -0.7012    0.4031 C   0  0  0  0  0  0  0  0  0  0  0  0
   -5.6954   -1.7287    0.7576 C   0  0  0  0  0  0  0  0  0  0  0  0
   -5.8751   -2.3901    1.9706 C   0  0  0  0  0  0  0  0  0  0  0  0
   -6.4694   -0.0007   -1.2194 S   0  0  0  0  0  0  0  0  0  0  0  0
   -5.9694   -1.0278   -2.1045 O   0  0  0  0  0  0  0  0  0  0  0  0
   -7.7169    0.6695   -1.5048 O   0  0  0  0  0  0  0  0  0  0  0  0
   -5.2501    1.1215   -1.1080 N   0  0  0  0  0  0  0  0  0  0  0  0
   -5.1044    2.1119   -0.0358 C   0  0  3  0  0  0  0  0  0  0  0  0
   -3.6174    2.7306   -0.0293 C   0  0  3  0  0  0  0  0  0  0  0  0
   -3.8311    4.2031   -0.1599 C   0  0  0  0  0  0  0  0  0  0  0  0
   -2.8871    5.2252   -0.1754 C   0  0  0  0  0  0  0  0  0  0  0  0
   -3.3784    6.5340   -0.3061 C   0  0  0  0  0  0  0  0  0  0  0  0
   -4.7593    6.8023   -0.3700 C   0  0  0  0  0  0  0  0  0  0  0  0
   -5.6899    5.7492   -0.3350 C   0  0  0  0  0  0  0  0  0  0  0  0
   -5.1831    4.4722   -0.2482 C   0  0  0  0  0  0  0  0  0  0  0  0
   -5.9672    3.3289   -0.2010 C   0  0  0  0  0  0  0  0  0  0  0  0
   -7.3530    3.4435   -0.2135 C   0  0  0  0  0  0  0  0  0  0  0  0
   -7.8965    4.7355   -0.3075 C   0  0  0  0  0  0  0  0  0  0  0  0
   -7.0856    5.8798   -0.3670 C   0  0  0  0  0  0  0  0  0  0  0  0
   -2.4398    2.0069   -1.2451 S   0  0  0  0  0  0  0  0  0  0  0  0
   -2.6651    3.0078   -2.7031 C   0  0  0  0  0  0  0  0  0  0  0  0
   -3.8919    3.1780   -3.3355 C   0  0  0  0  0  0  0  0  0  0  0  0
   -3.9521    3.9351   -4.5029 C   0  0  0  0  0  0  0  0  0  0  0  0
   -2.7888    4.4942   -5.0112 C   0  0  0  0  0  0  0  0  0  0  0  0
   -1.6094    4.2734   -4.3240 C   0  0  0  0  0  0  0  0  0  0  0  0
   -1.5218    3.5454   -3.1899 N   0  0  0  0  0  0  0  0  0  0  0  0
   -8.0967   -2.5174    4.5700 H   0  0  0  0  0  0  0  0  0  0  0  0
   -6.3444   -2.7360    4.7626 H   0  0  0  0  0  0  0  0  0  0  0  0
   -7.3040   -3.8967    3.8043 H   0  0  0  0  0  0  0  0  0  0  0  0
   -8.5951   -0.6833    3.1284 H   0  0  0  0  0  0  0  0  0  0  0  0
   -8.3003    0.4727    0.9811 H   0  0  0  0  0  0  0  0  0  0  0  0
   -4.9058   -2.0471    0.0800 H   0  0  0  0  0  0  0  0  0  0  0  0
   -5.2152   -3.2151    2.2318 H   0  0  0  0  0  0  0  0  0  0  0  0
   -4.3714    0.7356   -1.4634 H   0  0  0  0  0  0  0  0  0  0  0  0
   -5.2831    1.6647    0.9462 H   0  0  0  0  0  0  0  0  0  0  0  0
   -3.1847    2.5447    0.9625 H   0  0  0  0  0  0  0  0  0  0  0  0
   -1.8241    5.0086   -0.1262 H   0  0  0  0  0  0  0  0  0  0  0  0
   -2.6712    7.3601   -0.3706 H   0  0  0  0  0  0  0  0  0  0  0  0
   -5.1021    7.8317   -0.4394 H   0  0  0  0  0  0  0  0  0  0  0  0
   -8.0054    2.5844   -0.1385 H   0  0  0  0  0  0  0  0  0  0  0  0
   -8.9790    4.8537   -0.3124 H   0  0  0  0  0  0  0  0  0  0  0  0
   -7.5452    6.8628   -0.4258 H   0  0  0  0  0  0  0  0  0  0  0  0
   -4.8058    2.7374   -2.9570 H   0  0  0  0  0  0  0  0  0  0  0  0
   -4.9018    4.0737   -5.0114 H   0  0  0  0  0  0  0  0  0  0  0  0
   -2.8013    5.0830   -5.9209 H   0  0  0  0  0  0  0  0  0  0  0  0
   -0.6698    4.6849   -4.6803 H   0  0  0  0  0  0  0  0  0  0  0  0
  1  2  1  0  0  0  0
  1 31  1  0  0  0  0
  1 32  1  0  0  0  0
  1 33  1  0  0  0  0
  2  3  2  0  0  0  0
  2  7  1  0  0  0  0
  3  4  1  0  0  0  0
  3 34  1  0  0  0  0
  4  5  2  0  0  0  0
  4 35  1  0  0  0  0
  5  6  1  0  0  0  0
  5  8  1  0  0  0  0
  6  7  2  0  0  0  0
  6 36  1  0  0  0  0
  7 37  1  0  0  0  0
  8  9  2  0  0  0  0
  8 10  2  0  0  0  0
  8 11  1  0  0  0  0
 11 12  1  0  0  0  0
 11 38  1  0  0  0  0
 12 13  1  0  0  0  0
 12 20  1  0  0  0  0
 12 39  1  0  0  0  0
 13 14  1  0  0  0  0
 13 24  1  0  0  0  0
 13 40  1  0  0  0  0
 14 15  2  0  0  0  0
 14 19  1  0  0  0  0
 15 16  1  0  0  0  0
 15 41  1  0  0  0  0
 16 17  2  0  0  0  0
 16 42  1  0  0  0  0
 17 18  1  0  0  0  0
 17 43  1  0  0  0  0
 18 19  2  0  0  0  0
 18 23  1  0  0  0  0
 19 20  1  0  0  0  0
 20 21  2  0  0  0  0
 21 22  1  0  0  0  0
 21 44  1  0  0  0  0
 22 23  2  0  0  0  0
 22 45  1  0  0  0  0
 23 46  1  0  0  0  0
 24 25  1  0  0  0  0
 25 26  2  0  0  0  0
 25 30  1  0  0  0  0
 26 27  1  0  0  0  0
 26 47  1  0  0  0  0
 27 28  2  0  0  0  0
 27 48  1  0  0  0  0
 28 29  1  0  0  0  0
 28 49  1  0  0  0  0
 29 30  2  0  0  0  0
 29 50  1  0  0  0  0
M  END
