
 OpenBabel10072616343D

 55 57  0  0  0  0  0  0  0  0999 V2000
    1.8248   -0.2469   -0.4342 C   0  0  0  0  0  0  0  0  0  0  0  0
    2.8263    0.3111    0.5435 C   0  0  0  0  0  0  0  0  0  0  0  0
    2.8629    1.5194    0.7745 O   0  0  0  0  0  0  0  0  0  0  0  0
    3.6868   -0.5940    1.1499 N   0  0  0  0  0  0  0  0  0  0  0  0
    3.3675   -2.0197    1.3007 C   0  0  0  0  0  0  0  0  0  0  0  0
    2.7269   -2.2915    2.6792 C   0  0  0  0  0  0  0  0  0  0  0  0
    3.5175   -1.7116    3.7867 N   0  0  0  0  0  0  0  0  0  0  0  0
    3.8820   -0.2823    3.5879 C   0  0  0  0  0  0  0  0  0  0  0  0
    4.5617   -0.0882    2.2167 C   0  0  0  0  0  0  0  0  0  0  0  0
    4.4430   -2.4898    4.4763 C   0  0  0  0  0  0  0  0  0  0  0  0
    5.0154   -3.6557    3.9618 C   0  0  0  0  0  0  0  0  0  0  0  0
    5.9278   -4.4240    4.7057 C   0  0  0  0  0  0  0  0  0  0  0  0
    6.2787   -4.0632    6.0018 C   0  0  0  0  0  0  0  0  0  0  0  0
    5.7027   -2.9053    6.5324 C   0  0  0  0  0  0  0  0  0  0  0  0
    4.8095   -2.1325    5.7798 C   0  0  0  0  0  0  0  0  0  0  0  0
    7.1482   -4.7741    6.8580 N   0  0  0  0  0  0  0  0  0  0  0  0
    7.8964   -5.9149    6.7069 C   0  0  0  0  0  0  0  0  0  0  0  0
    8.1530   -6.8794    5.3692 S   0  0  0  0  0  0  0  0  0  0  0  0
    8.5363   -6.3488    7.8585 N   0  0  0  0  0  0  0  0  0  0  0  0
    8.5019   -5.8240    9.1442 C   0  0  0  0  0  0  0  0  0  0  0  0
    7.9302   -4.7777    9.4348 O   0  0  0  0  0  0  0  0  0  0  0  0
    9.1735   -6.6307   10.2057 C   0  0  0  0  0  0  0  0  0  0  0  0
   10.2297   -7.5055    9.9328 C   0  0  0  0  0  0  0  0  0  0  0  0
   10.7612   -8.2961   10.9692 C   0  0  0  0  0  0  0  0  0  0  0  0
   10.2876   -8.2204   12.2803 C   0  0  0  0  0  0  0  0  0  0  0  0
    9.2492   -7.3162   12.5393 C   0  0  0  0  0  0  0  0  0  0  0  0
    8.7044   -6.5211   11.5208 C   0  0  0  0  0  0  0  0  0  0  0  0
   10.6376   -8.9769   13.3599 O   0  0  0  0  0  0  0  0  0  0  0  0
   12.0142   -9.2924   13.5309 C   0  0  0  0  0  0  0  0  0  0  0  0
   11.7485   -9.2718   10.5718 N   0  3  0  0  0  0  0  0  0  0  0  0
   12.9046   -8.8599   10.4139 O   0  0  0  0  0  0  0  0  0  0  0  0
   11.3515  -10.4234   10.3608 O   0  5  0  0  0  0  0  0  0  0  0  0
    1.3678    0.5759   -0.9912 H   0  0  0  0  0  0  0  0  0  0  0  0
    1.0378   -0.7821    0.1033 H   0  0  0  0  0  0  0  0  0  0  0  0
    2.3175   -0.9068   -1.1531 H   0  0  0  0  0  0  0  0  0  0  0  0
    4.3035   -2.5756    1.1850 H   0  0  0  0  0  0  0  0  0  0  0  0
    2.6879   -2.3643    0.5189 H   0  0  0  0  0  0  0  0  0  0  0  0
    2.5465   -3.3633    2.8220 H   0  0  0  0  0  0  0  0  0  0  0  0
    1.7383   -1.8154    2.7031 H   0  0  0  0  0  0  0  0  0  0  0  0
    4.5305    0.1076    4.3804 H   0  0  0  0  0  0  0  0  0  0  0  0
    2.9571    0.3075    3.6207 H   0  0  0  0  0  0  0  0  0  0  0  0
    5.5043   -0.6472    2.1693 H   0  0  0  0  0  0  0  0  0  0  0  0
    4.7940    0.9709    2.0645 H   0  0  0  0  0  0  0  0  0  0  0  0
    4.7844   -3.9998    2.9585 H   0  0  0  0  0  0  0  0  0  0  0  0
    6.3156   -5.3087    4.2213 H   0  0  0  0  0  0  0  0  0  0  0  0
    5.9225   -2.5871    7.5486 H   0  0  0  0  0  0  0  0  0  0  0  0
    4.3589   -1.2589    6.2458 H   0  0  0  0  0  0  0  0  0  0  0  0
    7.2326   -4.3679    7.7912 H   0  0  0  0  0  0  0  0  0  0  0  0
    9.0045   -7.2302    7.7015 H   0  0  0  0  0  0  0  0  0  0  0  0
   10.6479   -7.5984    8.9340 H   0  0  0  0  0  0  0  0  0  0  0  0
    8.8487   -7.2281   13.5494 H   0  0  0  0  0  0  0  0  0  0  0  0
    7.8876   -5.8384   11.7588 H   0  0  0  0  0  0  0  0  0  0  0  0
   12.1945   -9.4185   14.6017 H   0  0  0  0  0  0  0  0  0  0  0  0
   12.6706   -8.4921   13.1794 H   0  0  0  0  0  0  0  0  0  0  0  0
   12.2485  -10.2437   13.0465 H   0  0  0  0  0  0  0  0  0  0  0  0
  1  2  1  0  0  0  0
  1 33  1  0  0  0  0
  1 34  1  0  0  0  0
  1 35  1  0  0  0  0
  2  3  2  0  0  0  0
  2  4  1  0  0  0  0
  4  5  1  0  0  0  0
  4  9  1  0  0  0  0
  5  6  1  0  0  0  0
  5 36  1  0  0  0  0
  5 37  1  0  0  0  0
  6  7  1  0  0  0  0
  6 38  1  0  0  0  0
  6 39  1  0  0  0  0
  7  8  1  0  0  0  0
  7 10  1  0  0  0  0
  8  9  1  0  0  0  0
  8 40  1  0  0  0  0
  8 41  1  0  0  0  0
  9 42  1  0  0  0  0
  9 43  1  0  0  0  0
 10 11  2  0  0  0  0
 10 15  1  0  0  0  0
 11 12  1  0  0  0  0
 11 44  1  0  0  0  0
 12 13  2  0  0  0  0
 12 45  1  0  0  0  0
 13 14  1  0  0  0  0
 13 16  1  0  0  0  0
 14 15  2  0  0  0  0
 14 46  1  0  0  0  0
 15 47  1  0  0  0  0
 16 17  1  0  0  0  0
 16 48  1  0  0  0  0
 17 18  2  0  0  0  0
 17 19  1  0  0  0  0
 19 20  1  0  0  0  0
 19 49  1  0  0  0  0
 20 21  2  0  0  0  0
 20 22  1  0  0  0  0
 22 23  2  0  0  0  0
 22 27  1  0  0  0  0
 23 24  1  0  0  0  0
 23 50  1  0  0  0  0
 24 25  2  0  0  0  0
 24 30  1  0  0  0  0
 25 26  1  0  0  0  0
 25 28  1  0  0  0  0
 26 27  2  0  0  0  0
 26 51  1  0  0  0  0
 27 52  1  0  0  0  0
 28 29  1  0  0  0  0
 29 53  1  0  0  0  0
 29 54  1  0  0  0  0
 29 55  1  0  0  0  0
 30 31  2  0  0  0  0
 30 32  1  0  0  0  0
M  CHG  2  30   1  32  -1
M  END
