
 OpenBabel10072619523D

 64 67  0  0  0  0  0  0  0  0999 V2000
   -1.6829   -0.2604    1.5765 C   0  0  0  0  0  0  0  0  0  0  0  0
   -2.0907   -0.4610    0.2620 C   0  0  0  0  0  0  0  0  0  0  0  0
   -1.4911    0.2604   -0.7722 C   0  0  0  0  0  0  0  0  0  0  0  0
   -0.4836    1.1918   -0.4911 C   0  0  0  0  0  0  0  0  0  0  0  0
   -0.0550    1.3999    0.8283 C   0  0  0  0  0  0  0  0  0  0  0  0
   -0.6740    0.6626    1.8563 C   0  0  0  0  0  0  0  0  0  0  0  0
    1.0428    2.3386    1.2382 C   0  0  0  0  0  0  0  0  0  0  0  0
    1.3438    2.3897    2.4290 O   0  0  0  0  0  0  0  0  0  0  0  0
    1.6296    3.1041    0.2430 N   0  0  0  0  0  0  0  0  0  0  0  0
    2.7060    4.0056    0.4039 C   0  0  0  0  0  0  0  0  0  0  0  0
    3.5123    4.0397    1.5434 C   0  0  0  0  0  0  0  0  0  0  0  0
    4.5291    5.0043    1.6988 C   0  0  0  0  0  0  0  0  0  0  0  0
    4.7549    5.9557    0.7036 C   0  0  0  0  0  0  0  0  0  0  0  0
    3.9837    5.8722   -0.4710 C   0  0  0  0  0  0  0  0  0  0  0  0
    2.9750    4.9100   -0.6217 C   0  0  0  0  0  0  0  0  0  0  0  0
    5.6864    7.0858    0.8047 C   0  0  0  0  0  0  0  0  0  0  0  0
    5.2363    8.2916    1.1925 C   0  0  0  0  0  0  0  0  0  0  0  0
    6.0517    9.5137    1.1332 C   0  0  0  0  0  0  0  0  0  0  0  0
    6.0022   10.3848    0.0358 C   0  0  0  0  0  0  0  0  0  0  0  0
    6.7164   11.5953    0.0309 C   0  0  0  0  0  0  0  0  0  0  0  0
    7.5309   11.9469    1.1073 C   0  0  0  0  0  0  0  0  0  0  0  0
    7.5961   11.0763    2.2014 C   0  0  0  0  0  0  0  0  0  0  0  0
    6.8687    9.8712    2.2127 C   0  0  0  0  0  0  0  0  0  0  0  0
    8.2956   13.1382    1.1437 N   0  0  0  0  0  0  0  0  0  0  0  0
    8.5611   13.9874    0.0783 C   0  0  0  0  0  0  0  0  0  0  0  0
    8.1925   13.7935   -1.0787 O   0  0  0  0  0  0  0  0  0  0  0  0
    9.4072   15.2027    0.3518 C   0  0  0  0  0  0  0  0  0  0  0  0
    9.7243   16.0144   -0.7550 C   0  0  0  0  0  0  0  0  0  0  0  0
   10.5034   17.1635   -0.6150 C   0  0  0  0  0  0  0  0  0  0  0  0
   10.9719   17.5282    0.6413 C   0  0  0  0  0  0  0  0  0  0  0  0
   10.6742   16.7399    1.7540 C   0  0  0  0  0  0  0  0  0  0  0  0
    9.8927   15.5849    1.6106 C   0  0  0  0  0  0  0  0  0  0  0  0
    9.6188   14.8316    2.7224 O   0  0  0  0  0  0  0  0  0  0  0  0
    5.0442    9.9537   -1.3961 S   0  0  0  0  0  0  0  0  0  0  0  0
    5.6296    8.7620   -1.9711 O   0  0  0  0  0  0  0  0  0  0  0  0
    3.6437   10.0404   -1.0374 O   0  0  0  0  0  0  0  0  0  0  0  0
    5.3416   11.1160   -2.4760 O   0  0  0  0  0  0  0  0  0  0  0  0
    5.4522    4.9313    3.2136 S   0  0  0  0  0  0  0  0  0  0  0  0
    6.0975    3.6331    3.2510 O   0  0  0  0  0  0  0  0  0  0  0  0
    6.2023    6.1461    3.4309 O   0  0  0  0  0  0  0  0  0  0  0  0
    4.3032    4.8857    4.3486 O   0  0  0  0  0  0  0  0  0  0  0  0
    0.0728    1.8927   -1.5306 O   0  0  0  0  0  0  0  0  0  0  0  0
   -2.1411   -0.8213    2.3877 H   0  0  0  0  0  0  0  0  0  0  0  0
   -2.8746   -1.1830    0.0439 H   0  0  0  0  0  0  0  0  0  0  0  0
   -1.8237    0.0801   -1.7904 H   0  0  0  0  0  0  0  0  0  0  0  0
   -0.3648    0.7999    2.8919 H   0  0  0  0  0  0  0  0  0  0  0  0
    1.1816    3.0593   -0.6711 H   0  0  0  0  0  0  0  0  0  0  0  0
    3.3687    3.3045    2.3274 H   0  0  0  0  0  0  0  0  0  0  0  0
    4.1469    6.5865   -1.2781 H   0  0  0  0  0  0  0  0  0  0  0  0
    2.3831    4.9188   -1.5330 H   0  0  0  0  0  0  0  0  0  0  0  0
    6.7127    6.9172    0.4899 H   0  0  0  0  0  0  0  0  0  0  0  0
    4.1940    8.4428    1.4768 H   0  0  0  0  0  0  0  0  0  0  0  0
    6.6027   12.2709   -0.8098 H   0  0  0  0  0  0  0  0  0  0  0  0
    8.2158   11.3176    3.0617 H   0  0  0  0  0  0  0  0  0  0  0  0
    6.9429    9.2124    3.0769 H   0  0  0  0  0  0  0  0  0  0  0  0
    8.7525   13.3760    2.0221 H   0  0  0  0  0  0  0  0  0  0  0  0
    9.3636   15.7495   -1.7473 H   0  0  0  0  0  0  0  0  0  0  0  0
   10.7331   17.7723   -1.4861 H   0  0  0  0  0  0  0  0  0  0  0  0
   11.5733   18.4270    0.7505 H   0  0  0  0  0  0  0  0  0  0  0  0
   11.0574   17.0486    2.7228 H   0  0  0  0  0  0  0  0  0  0  0  0
    9.9772   15.2903    3.5036 H   0  0  0  0  0  0  0  0  0  0  0  0
    6.1635   10.8768   -2.9543 H   0  0  0  0  0  0  0  0  0  0  0  0
    4.0849    3.9505    4.5406 H   0  0  0  0  0  0  0  0  0  0  0  0
   -0.3207    1.5795   -2.3655 H   0  0  0  0  0  0  0  0  0  0  0  0
  1  2  2  0  0  0  0
  1  6  1  0  0  0  0
  1 43  1  0  0  0  0
  2  3  1  0  0  0  0
  2 44  1  0  0  0  0
  3  4  2  0  0  0  0
  3 45  1  0  0  0  0
  4  5  1  0  0  0  0
  4 42  1  0  0  0  0
  5  6  2  0  0  0  0
  5  7  1  0  0  0  0
  6 46  1  0  0  0  0
  7  8  2  0  0  0  0
  7  9  1  0  0  0  0
  9 10  1  0  0  0  0
  9 47  1  0  0  0  0
 10 11  2  0  0  0  0
 10 15  1  0  0  0  0
 11 12  1  0  0  0  0
 11 48  1  0  0  0  0
 12 13  2  0  0  0  0
 12 38  1  0  0  0  0
 13 14  1  0  0  0  0
 13 16  1  0  0  0  0
 14 15  2  0  0  0  0
 14 49  1  0  0  0  0
 15 50  1  0  0  0  0
 16 17  2  0  0  0  0
 16 51  1  0  0  0  0
 17 18  1  0  0  0  0
 17 52  1  0  0  0  0
 18 19  2  0  0  0  0
 18 23  1  0  0  0  0
 19 20  1  0  0  0  0
 19 34  1  0  0  0  0
 20 21  2  0  0  0  0
 20 53  1  0  0  0  0
 21 22  1  0  0  0  0
 21 24  1  0  0  0  0
 22 23  2  0  0  0  0
 22 54  1  0  0  0  0
 23 55  1  0  0  0  0
 24 25  1  0  0  0  0
 24 56  1  0  0  0  0
 25 26  2  0  0  0  0
 25 27  1  0  0  0  0
 27 28  2  0  0  0  0
 27 32  1  0  0  0  0
 28 29  1  0  0  0  0
 28 57  1  0  0  0  0
 29 30  2  0  0  0  0
 29 58  1  0  0  0  0
 30 31  1  0  0  0  0
 30 59  1  0  0  0  0
 31 32  2  0  0  0  0
 31 60  1  0  0  0  0
 32 33  1  0  0  0  0
 33 61  1  0  0  0  0
 34 35  2  0  0  0  0
 34 36  2  0  0  0  0
 34 37  1  0  0  0  0
 37 62  1  0  0  0  0
 38 39  2  0  0  0  0
 38 40  2  0  0  0  0
 38 41  1  0  0  0  0
 41 63  1  0  0  0  0
 42 64  1  0  0  0  0
M  END
