
 OpenBabel10072616323D

 41 43  0  0  0  0  0  0  0  0999 V2000
   -2.5915    1.8009    2.1092 C   0  0  0  0  0  0  0  0  0  0  0  0
   -1.3582    1.1738    1.5722 C   0  0  0  0  0  0  0  0  0  0  0  0
   -0.7616   -0.0401    1.8510 C   0  0  0  0  0  0  0  0  0  0  0  0
    0.4157   -0.1460    1.0589 C   0  0  0  0  0  0  0  0  0  0  0  0
    0.4975    1.0123    0.2914 C   0  0  0  0  0  0  0  0  0  0  0  0
   -0.5905    1.7924    0.6140 N   0  0  0  0  0  0  0  0  0  0  0  0
    1.5357    1.2411   -0.6163 C   0  0  0  0  0  0  0  0  0  0  0  0
    2.5208    0.2526   -0.7408 C   0  0  0  0  0  0  0  0  0  0  0  0
    2.4889   -0.9237    0.0213 C   0  0  0  0  0  0  0  0  0  0  0  0
    1.4206   -1.1256    0.9178 C   0  0  0  0  0  0  0  0  0  0  0  0
    3.5141   -2.0228   -0.1476 C   0  0  0  0  0  0  0  0  0  0  0  0
    4.8646   -1.5235   -0.3926 N   0  0  0  0  0  0  0  0  0  0  0  0
    5.5303   -1.4735   -1.6098 C   0  0  0  0  0  0  0  0  0  0  0  0
    4.8970   -2.0347   -3.0556 S   0  0  0  0  0  0  0  0  0  0  0  0
    6.8157   -0.9675   -1.4153 N   0  0  0  0  0  0  0  0  0  0  0  0
    7.7258   -0.4527   -2.3770 C   0  0  0  0  0  0  0  0  0  0  0  0
    9.1220   -0.6014   -2.1945 C   0  0  0  0  0  0  0  0  0  0  0  0
    9.9899    0.0113   -3.1286 C   0  0  0  0  0  0  0  0  0  0  0  0
    9.4942    0.7143   -4.2306 C   0  0  0  0  0  0  0  0  0  0  0  0
    8.1235    0.8542   -4.3993 C   0  0  0  0  0  0  0  0  0  0  0  0
    7.2515    0.2890   -3.4697 C   0  0  0  0  0  0  0  0  0  0  0  0
   11.7142   -0.0532   -2.9655 Cl  0  0  0  0  0  0  0  0  0  0  0  0
    9.6869   -1.3863   -1.0372 C   0  0  0  0  0  0  0  0  0  0  0  0
   -2.9055    1.3188    3.0407 H   0  0  0  0  0  0  0  0  0  0  0  0
   -3.4089    1.7135    1.3863 H   0  0  0  0  0  0  0  0  0  0  0  0
   -2.4319    2.8634    2.3211 H   0  0  0  0  0  0  0  0  0  0  0  0
   -1.1285   -0.7782    2.5526 H   0  0  0  0  0  0  0  0  0  0  0  0
   -0.7895    2.6921    0.1996 H   0  0  0  0  0  0  0  0  0  0  0  0
    1.5787    2.1453   -1.2144 H   0  0  0  0  0  0  0  0  0  0  0  0
    3.3162    0.4167   -1.4649 H   0  0  0  0  0  0  0  0  0  0  0  0
    1.3592   -2.0383    1.5047 H   0  0  0  0  0  0  0  0  0  0  0  0
    3.1878   -2.7156   -0.9288 H   0  0  0  0  0  0  0  0  0  0  0  0
    3.5890   -2.5927    0.7865 H   0  0  0  0  0  0  0  0  0  0  0  0
    5.2229   -0.9140    0.3305 H   0  0  0  0  0  0  0  0  0  0  0  0
    7.2150   -1.2301   -0.5248 H   0  0  0  0  0  0  0  0  0  0  0  0
   10.1706    1.1578   -4.9583 H   0  0  0  0  0  0  0  0  0  0  0  0
    7.7286    1.4131   -5.2443 H   0  0  0  0  0  0  0  0  0  0  0  0
    6.1883    0.4733   -3.6014 H   0  0  0  0  0  0  0  0  0  0  0  0
    9.0237   -2.2051   -0.7417 H   0  0  0  0  0  0  0  0  0  0  0  0
    9.8464   -0.7251   -0.1801 H   0  0  0  0  0  0  0  0  0  0  0  0
   10.6329   -1.8729   -1.2960 H   0  0  0  0  0  0  0  0  0  0  0  0
  1  2  1  0  0  0  0
  1 24  1  0  0  0  0
  1 25  1  0  0  0  0
  1 26  1  0  0  0  0
  2  3  2  0  0  0  0
  2  6  1  0  0  0  0
  3  4  1  0  0  0  0
  3 27  1  0  0  0  0
  4  5  2  0  0  0  0
  4 10  1  0  0  0  0
  5  6  1  0  0  0  0
  5  7  1  0  0  0  0
  6 28  1  0  0  0  0
  7  8  2  0  0  0  0
  7 29  1  0  0  0  0
  8  9  1  0  0  0  0
  8 30  1  0  0  0  0
  9 10  2  0  0  0  0
  9 11  1  0  0  0  0
 10 31  1  0  0  0  0
 11 12  1  0  0  0  0
 11 32  1  0  0  0  0
 11 33  1  0  0  0  0
 12 13  1  0  0  0  0
 12 34  1  0  0  0  0
 13 14  2  0  0  0  0
 13 15  1  0  0  0  0
 15 16  1  0  0  0  0
 15 35  1  0  0  0  0
 16 17  2  0  0  0  0
 16 21  1  0  0  0  0
 17 18  1  0  0  0  0
 17 23  1  0  0  0  0
 18 19  2  0  0  0  0
 18 22  1  0  0  0  0
 19 20  1  0  0  0  0
 19 36  1  0  0  0  0
 20 21  2  0  0  0  0
 20 37  1  0  0  0  0
 21 38  1  0  0  0  0
 23 39  1  0  0  0  0
 23 40  1  0  0  0  0
 23 41  1  0  0  0  0
M  END
