
 OpenBabel10072619513D

106110  0  0  1  0  0  0  0  0999 V2000
    3.7898    1.0028   -2.4425 C   0  0  0  0  0  0  0  0  0  0  0  0
    4.1643    0.2109   -1.1696 C   0  0  0  0  0  0  0  0  0  0  0  0
    5.4536   -0.5930   -1.4250 C   0  0  0  0  0  0  0  0  0  0  0  0
    4.4686    1.2401   -0.0550 C   0  0  0  0  0  0  0  0  0  0  0  0
    2.9584   -0.6743   -0.7230 C   0  0  1  0  0  0  0  0  0  0  0  0
    2.3980   -1.6195   -1.8221 C   0  0  0  0  0  0  0  0  0  0  0  0
    3.1351   -2.2025   -2.6229 O   0  0  0  0  0  0  0  0  0  0  0  0
    1.0473   -1.9083   -1.8126 N   0  0  0  0  0  0  0  0  0  0  0  0
    0.0650   -1.4073   -0.8593 C   0  0  0  0  0  0  0  0  0  0  0  0
   -1.2731   -2.0196   -1.2700 C   0  0  1  0  0  0  0  0  0  0  0  0
   -0.8358   -3.3305   -1.9359 C   0  0  0  0  0  0  0  0  0  0  0  0
    0.4909   -3.0033   -2.6128 C   0  0  1  0  0  0  0  0  0  0  0  0
    0.3141   -2.6989   -4.1183 C   0  0  0  0  0  0  0  0  0  0  0  0
   -0.6925   -3.0032   -4.7606 O   0  0  0  0  0  0  0  0  0  0  0  0
    1.4426   -2.2354   -4.7586 N   0  0  0  0  0  0  0  0  0  0  0  0
    1.5363   -2.1618   -6.2071 C   0  0  3  0  0  0  0  0  0  0  0  0
    2.3968   -1.0464   -6.7750 C   0  0  0  0  0  0  0  0  0  0  0  0
    0.9138   -0.9867   -6.9725 C   0  0  2  0  0  0  0  0  0  0  0  0
    0.1030    0.0002   -6.2476 C   0  0  0  0  0  0  0  0  0  0  0  0
    0.3319    1.3171   -6.1650 C   0  0  0  0  0  0  0  0  0  0  0  0
    1.5386   -3.4959   -6.9256 C   0  0  0  0  0  0  0  0  0  0  0  0
    2.5373   -3.9463   -7.4646 O   0  0  0  0  0  0  0  0  0  0  0  0
    0.3452   -4.1382   -6.8936 O   0  0  0  0  0  0  0  0  0  0  0  0
   -2.0892   -2.4033   -0.1714 O   0  0  0  0  0  0  0  0  0  0  0  0
   -2.8250   -1.4829    0.5218 C   0  0  0  0  0  0  0  0  0  0  0  0
   -2.6872   -0.1054    0.4154 C   0  0  0  0  0  0  0  0  0  0  0  0
   -3.4605    0.6985    1.2438 C   0  0  0  0  0  0  0  0  0  0  0  0
   -4.3729    0.2024    2.1163 N   0  0  0  0  0  0  0  0  0  0  0  0
   -4.5158   -1.1283    2.2121 C   0  0  0  0  0  0  0  0  0  0  0  0
   -3.7579   -2.0241    1.4360 C   0  0  0  0  0  0  0  0  0  0  0  0
   -3.9591   -3.4125    1.6024 C   0  0  0  0  0  0  0  0  0  0  0  0
   -4.8876   -3.9056    2.5192 C   0  0  0  0  0  0  0  0  0  0  0  0
   -5.6371   -3.0184    3.2804 C   0  0  0  0  0  0  0  0  0  0  0  0
   -5.4359   -1.6435    3.1181 C   0  0  0  0  0  0  0  0  0  0  0  0
   -6.5759   -3.3613    4.2140 O   0  0  0  0  0  0  0  0  0  0  0  0
   -6.8784   -4.7458    4.3357 C   0  0  0  0  0  0  0  0  0  0  0  0
   -3.2933    2.1516    1.2350 C   0  0  0  0  0  0  0  0  0  0  0  0
   -4.1631    3.0147    1.8734 C   0  0  0  0  0  0  0  0  0  0  0  0
   -3.6243    4.6261    1.6903 S   0  0  0  0  0  0  0  0  0  0  0  0
   -2.2651    4.0685    0.7836 C   0  0  0  0  0  0  0  0  0  0  0  0
   -2.2200    2.7685    0.6019 N   0  0  0  0  0  0  0  0  0  0  0  0
   -1.3650    4.9778    0.3432 N   0  0  0  0  0  0  0  0  0  0  0  0
    0.0193    4.6380    0.0035 C   0  0  0  0  0  0  0  0  0  0  0  0
    0.0956    3.6410   -1.1623 C   0  0  0  0  0  0  0  0  0  0  0  0
    0.6991    5.9486   -0.4444 C   0  0  0  0  0  0  0  0  0  0  0  0
    0.7677    4.1052    1.2333 C   0  0  0  0  0  0  0  0  0  0  0  0
    3.2919   -1.5532    0.3970 N   0  0  0  0  0  0  0  0  0  0  0  0
    2.6138   -1.5349    1.5748 C   0  0  0  0  0  0  0  0  0  0  0  0
    1.8580   -0.6429    1.9235 O   0  0  0  0  0  0  0  0  0  0  0  0
    2.8547   -2.6889    2.2357 O   0  0  0  0  0  0  0  0  0  0  0  0
    2.1299   -3.0051    3.4543 C   0  0  0  0  0  0  0  0  0  0  0  0
    0.6150   -3.0494    3.2131 C   0  0  0  0  0  0  0  0  0  0  0  0
    2.5980   -4.4165    3.8415 C   0  0  0  0  0  0  0  0  0  0  0  0
    2.5026   -2.0425    4.5855 C   0  0  0  0  0  0  0  0  0  0  0  0
    4.5800    1.7110   -2.7202 H   0  0  0  0  0  0  0  0  0  0  0  0
    2.8697    1.5802   -2.2900 H   0  0  0  0  0  0  0  0  0  0  0  0
    3.6322    0.3436   -3.3030 H   0  0  0  0  0  0  0  0  0  0  0  0
    6.2930    0.0741   -1.6555 H   0  0  0  0  0  0  0  0  0  0  0  0
    5.3550   -1.2795   -2.2694 H   0  0  0  0  0  0  0  0  0  0  0  0
    5.7422   -1.1809   -0.5470 H   0  0  0  0  0  0  0  0  0  0  0  0
    5.2615    1.9337   -0.3611 H   0  0  0  0  0  0  0  0  0  0  0  0
    4.8002    0.7476    0.8658 H   0  0  0  0  0  0  0  0  0  0  0  0
    3.5827    1.8393    0.1846 H   0  0  0  0  0  0  0  0  0  0  0  0
    2.1584    0.0076   -0.4192 H   0  0  0  0  0  0  0  0  0  0  0  0
    0.0473   -0.3151   -0.8905 H   0  0  0  0  0  0  0  0  0  0  0  0
    0.3442   -1.7268    0.1458 H   0  0  0  0  0  0  0  0  0  0  0  0
   -1.8186   -1.4012   -1.9926 H   0  0  0  0  0  0  0  0  0  0  0  0
   -1.6083   -3.7181   -2.6079 H   0  0  0  0  0  0  0  0  0  0  0  0
   -0.6755   -4.1056   -1.1727 H   0  0  0  0  0  0  0  0  0  0  0  0
    1.1642   -3.8686   -2.5536 H   0  0  0  0  0  0  0  0  0  0  0  0
    2.3204   -2.2435   -4.2343 H   0  0  0  0  0  0  0  0  0  0  0  0
    3.0040   -1.2690   -7.6457 H   0  0  0  0  0  0  0  0  0  0  0  0
    2.8724   -0.3763   -6.0697 H   0  0  0  0  0  0  0  0  0  0  0  0
    0.5546   -1.1855   -7.9802 H   0  0  0  0  0  0  0  0  0  0  0  0
   -0.7890   -0.3879   -5.7549 H   0  0  0  0  0  0  0  0  0  0  0  0
    1.1880    1.7775   -6.6484 H   0  0  0  0  0  0  0  0  0  0  0  0
   -0.3409    1.9582   -5.6038 H   0  0  0  0  0  0  0  0  0  0  0  0
   -0.2923   -3.6656   -6.3044 H   0  0  0  0  0  0  0  0  0  0  0  0
   -1.9905    0.3655   -0.2646 H   0  0  0  0  0  0  0  0  0  0  0  0
   -3.3829   -4.1226    1.0119 H   0  0  0  0  0  0  0  0  0  0  0  0
   -4.9953   -4.9810    2.6090 H   0  0  0  0  0  0  0  0  0  0  0  0
   -6.0185   -0.9493    3.7204 H   0  0  0  0  0  0  0  0  0  0  0  0
   -7.6731   -4.8524    5.0793 H   0  0  0  0  0  0  0  0  0  0  0  0
   -6.0088   -5.3070    4.6916 H   0  0  0  0  0  0  0  0  0  0  0  0
   -7.2499   -5.1527    3.3898 H   0  0  0  0  0  0  0  0  0  0  0  0
   -5.0585    2.7746    2.4304 H   0  0  0  0  0  0  0  0  0  0  0  0
   -1.4750    5.8989    0.7579 H   0  0  0  0  0  0  0  0  0  0  0  0
   -0.5196    3.9705   -2.0077 H   0  0  0  0  0  0  0  0  0  0  0  0
   -0.2422    2.6399   -0.8773 H   0  0  0  0  0  0  0  0  0  0  0  0
    1.1267    3.5354   -1.5197 H   0  0  0  0  0  0  0  0  0  0  0  0
    0.2031    6.3673   -1.3284 H   0  0  0  0  0  0  0  0  0  0  0  0
    1.7542    5.7854   -0.6918 H   0  0  0  0  0  0  0  0  0  0  0  0
    0.6540    6.7085    0.3460 H   0  0  0  0  0  0  0  0  0  0  0  0
    0.3426    3.1640    1.5975 H   0  0  0  0  0  0  0  0  0  0  0  0
    0.7296    4.8242    2.0600 H   0  0  0  0  0  0  0  0  0  0  0  0
    1.8230    3.9210    1.0031 H   0  0  0  0  0  0  0  0  0  0  0  0
    3.7934   -2.4119    0.2112 H   0  0  0  0  0  0  0  0  0  0  0  0
    0.3784   -3.6660    2.3393 H   0  0  0  0  0  0  0  0  0  0  0  0
    0.2008   -2.0571    3.0150 H   0  0  0  0  0  0  0  0  0  0  0  0
    0.0839   -3.4554    4.0806 H   0  0  0  0  0  0  0  0  0  0  0  0
    2.3725   -5.1343    3.0444 H   0  0  0  0  0  0  0  0  0  0  0  0
    2.1208   -4.7630    4.7646 H   0  0  0  0  0  0  0  0  0  0  0  0
    3.6844   -4.4441    3.9846 H   0  0  0  0  0  0  0  0  0  0  0  0
    2.1823   -1.0186    4.3737 H   0  0  0  0  0  0  0  0  0  0  0  0
    3.5890   -2.0077    4.7254 H   0  0  0  0  0  0  0  0  0  0  0  0
    2.0429   -2.3438    5.5330 H   0  0  0  0  0  0  0  0  0  0  0  0
  1  2  1  0  0  0  0
  1 55  1  0  0  0  0
  1 56  1  0  0  0  0
  1 57  1  0  0  0  0
  2  3  1  0  0  0  0
  2  4  1  0  0  0  0
  2  5  1  0  0  0  0
  3 58  1  0  0  0  0
  3 59  1  0  0  0  0
  3 60  1  0  0  0  0
  4 61  1  0  0  0  0
  4 62  1  0  0  0  0
  4 63  1  0  0  0  0
  5  6  1  0  0  0  0
  5 47  1  0  0  0  0
  5 64  1  1  0  0  0
  6  7  2  0  0  0  0
  6  8  1  0  0  0  0
  8  9  1  0  0  0  0
  8 12  1  0  0  0  0
  9 10  1  0  0  0  0
  9 65  1  0  0  0  0
  9 66  1  0  0  0  0
 10 11  1  0  0  0  0
 10 24  1  0  0  0  0
 10 67  1  6  0  0  0
 11 12  1  0  0  0  0
 11 68  1  0  0  0  0
 11 69  1  0  0  0  0
 12 13  1  0  0  0  0
 12 70  1  1  0  0  0
 13 14  2  0  0  0  0
 13 15  1  0  0  0  0
 15 16  1  0  0  0  0
 15 71  1  0  0  0  0
 16 17  1  0  0  0  0
 16 18  1  0  0  0  0
 16 21  1  0  0  0  0
 17 18  1  0  0  0  0
 17 72  1  0  0  0  0
 17 73  1  0  0  0  0
 18 19  1  0  0  0  0
 18 74  1  6  0  0  0
 19 20  2  0  0  0  0
 19 75  1  0  0  0  0
 20 76  1  0  0  0  0
 20 77  1  0  0  0  0
 21 22  2  0  0  0  0
 21 23  1  0  0  0  0
 23 78  1  0  0  0  0
 24 25  1  0  0  0  0
 25 26  2  0  0  0  0
 25 30  1  0  0  0  0
 26 27  1  0  0  0  0
 26 79  1  0  0  0  0
 27 28  2  0  0  0  0
 27 37  1  0  0  0  0
 28 29  1  0  0  0  0
 29 30  2  0  0  0  0
 29 34  1  0  0  0  0
 30 31  1  0  0  0  0
 31 32  2  0  0  0  0
 31 80  1  0  0  0  0
 32 33  1  0  0  0  0
 32 81  1  0  0  0  0
 33 34  2  0  0  0  0
 33 35  1  0  0  0  0
 34 82  1  0  0  0  0
 35 36  1  0  0  0  0
 36 83  1  0  0  0  0
 36 84  1  0  0  0  0
 36 85  1  0  0  0  0
 37 38  2  0  0  0  0
 37 41  1  0  0  0  0
 38 39  1  0  0  0  0
 38 86  1  0  0  0  0
 39 40  1  0  0  0  0
 40 41  2  0  0  0  0
 40 42  1  0  0  0  0
 42 43  1  0  0  0  0
 42 87  1  0  0  0  0
 43 44  1  0  0  0  0
 43 45  1  0  0  0  0
 43 46  1  0  0  0  0
 44 88  1  0  0  0  0
 44 89  1  0  0  0  0
 44 90  1  0  0  0  0
 45 91  1  0  0  0  0
 45 92  1  0  0  0  0
 45 93  1  0  0  0  0
 46 94  1  0  0  0  0
 46 95  1  0  0  0  0
 46 96  1  0  0  0  0
 47 48  1  0  0  0  0
 47 97  1  0  0  0  0
 48 49  2  0  0  0  0
 48 50  1  0  0  0  0
 50 51  1  0  0  0  0
 51 52  1  0  0  0  0
 51 53  1  0  0  0  0
 51 54  1  0  0  0  0
 52 98  1  0  0  0  0
 52 99  1  0  0  0  0
 52100  1  0  0  0  0
 53101  1  0  0  0  0
 53102  1  0  0  0  0
 53103  1  0  0  0  0
 54104  1  0  0  0  0
 54105  1  0  0  0  0
 54106  1  0  0  0  0
M  END
