
 OpenBabel10072616333D

 47 50  0  0  0  0  0  0  0  0999 V2000
    3.0303    8.8319   -3.0909 C   0  0  0  0  0  0  0  0  0  0  0  0
    2.7491    7.7096   -3.9184 O   0  0  0  0  0  0  0  0  0  0  0  0
    2.5637    6.5066   -3.2955 C   0  0  0  0  0  0  0  0  0  0  0  0
    2.7478    6.2486   -1.9366 C   0  0  0  0  0  0  0  0  0  0  0  0
    2.5327    4.9629   -1.4212 C   0  0  0  0  0  0  0  0  0  0  0  0
    2.1342    3.9228   -2.2737 C   0  0  0  0  0  0  0  0  0  0  0  0
    1.9282    4.1907   -3.6284 C   0  0  0  0  0  0  0  0  0  0  0  0
    2.1541    5.4709   -4.1370 C   0  0  0  0  0  0  0  0  0  0  0  0
    1.8178    2.6510   -1.8814 O   0  0  0  0  0  0  0  0  0  0  0  0
    2.8417    1.9633   -1.1728 C   0  0  0  0  0  0  0  0  0  0  0  0
    2.6647    4.7991   -0.0099 N   0  0  0  0  0  0  0  0  0  0  0  0
    1.2699    4.9036    0.9375 S   0  0  0  0  0  0  0  0  0  0  0  0
    0.1119    4.4598    0.1960 O   0  0  0  0  0  0  0  0  0  0  0  0
    1.6184    4.3086    2.2116 O   0  0  0  0  0  0  0  0  0  0  0  0
    1.1241    6.6606    1.1938 C   0  0  0  0  0  0  0  0  0  0  0  0
    1.7537    7.2555    2.3138 C   0  0  0  0  0  0  0  0  0  0  0  0
    1.6264    8.6281    2.5271 C   0  0  0  0  0  0  0  0  0  0  0  0
    0.8675    9.3307    1.6149 C   0  0  0  0  0  0  0  0  0  0  0  0
    0.2058    8.7625    0.5369 C   0  0  0  0  0  0  0  0  0  0  0  0
    0.3235    7.4070    0.3082 C   0  0  0  0  0  0  0  0  0  0  0  0
   -0.5448    9.8143   -0.2240 C   0  0  0  0  0  0  0  0  0  0  0  0
   -0.3485   11.0647    0.6682 C   0  0  0  0  0  0  0  0  0  0  0  0
    0.6355   10.6912    1.6861 N   0  0  0  0  0  0  0  0  0  0  0  0
    1.2227   11.5108    2.6123 C   0  0  0  0  0  0  0  0  0  0  0  0
    0.9712   12.7112    2.6991 O   0  0  0  0  0  0  0  0  0  0  0  0
    2.3282   10.8635    3.4418 C   0  0  0  0  0  0  0  0  0  0  0  0
    2.1285    9.3701    3.7284 C   0  0  0  0  0  0  0  0  0  0  0  0
    3.1018    9.7140   -3.7351 H   0  0  0  0  0  0  0  0  0  0  0  0
    3.9910    8.7151   -2.5794 H   0  0  0  0  0  0  0  0  0  0  0  0
    2.2192    9.0054   -2.3766 H   0  0  0  0  0  0  0  0  0  0  0  0
    3.0588    7.0330   -1.2551 H   0  0  0  0  0  0  0  0  0  0  0  0
    1.5875    3.3987   -4.2912 H   0  0  0  0  0  0  0  0  0  0  0  0
    1.9947    5.6640   -5.1957 H   0  0  0  0  0  0  0  0  0  0  0  0
    2.8137    0.9122   -1.4780 H   0  0  0  0  0  0  0  0  0  0  0  0
    2.6331    1.9987   -0.0994 H   0  0  0  0  0  0  0  0  0  0  0  0
    3.8453    2.3494   -1.3832 H   0  0  0  0  0  0  0  0  0  0  0  0
    3.2801    4.0649    0.3293 H   0  0  0  0  0  0  0  0  0  0  0  0
    2.3203    6.6458    3.0143 H   0  0  0  0  0  0  0  0  0  0  0  0
   -0.1834    6.9342   -0.5294 H   0  0  0  0  0  0  0  0  0  0  0  0
   -1.6056    9.5701   -0.3358 H   0  0  0  0  0  0  0  0  0  0  0  0
   -0.0919    9.9656   -1.2095 H   0  0  0  0  0  0  0  0  0  0  0  0
   -1.2783   11.3429    1.1781 H   0  0  0  0  0  0  0  0  0  0  0  0
    0.0056   11.9328    0.1022 H   0  0  0  0  0  0  0  0  0  0  0  0
    2.4137   11.4056    4.3904 H   0  0  0  0  0  0  0  0  0  0  0  0
    3.2639   11.0094    2.8886 H   0  0  0  0  0  0  0  0  0  0  0  0
    1.3941    9.2510    4.5349 H   0  0  0  0  0  0  0  0  0  0  0  0
    3.0766    8.9433    4.0736 H   0  0  0  0  0  0  0  0  0  0  0  0
  1  2  1  0  0  0  0
  1 28  1  0  0  0  0
  1 29  1  0  0  0  0
  1 30  1  0  0  0  0
  2  3  1  0  0  0  0
  3  4  2  0  0  0  0
  3  8  1  0  0  0  0
  4  5  1  0  0  0  0
  4 31  1  0  0  0  0
  5  6  2  0  0  0  0
  5 11  1  0  0  0  0
  6  7  1  0  0  0  0
  6  9  1  0  0  0  0
  7  8  2  0  0  0  0
  7 32  1  0  0  0  0
  8 33  1  0  0  0  0
  9 10  1  0  0  0  0
 10 34  1  0  0  0  0
 10 35  1  0  0  0  0
 10 36  1  0  0  0  0
 11 12  1  0  0  0  0
 11 37  1  0  0  0  0
 12 13  2  0  0  0  0
 12 14  2  0  0  0  0
 12 15  1  0  0  0  0
 15 16  2  0  0  0  0
 15 20  1  0  0  0  0
 16 17  1  0  0  0  0
 16 38  1  0  0  0  0
 17 18  2  0  0  0  0
 17 27  1  0  0  0  0
 18 19  1  0  0  0  0
 18 23  1  0  0  0  0
 19 20  2  0  0  0  0
 19 21  1  0  0  0  0
 20 39  1  0  0  0  0
 21 22  1  0  0  0  0
 21 40  1  0  0  0  0
 21 41  1  0  0  0  0
 22 23  1  0  0  0  0
 22 42  1  0  0  0  0
 22 43  1  0  0  0  0
 23 24  1  0  0  0  0
 24 25  2  0  0  0  0
 24 26  1  0  0  0  0
 26 27  1  0  0  0  0
 26 44  1  0  0  0  0
 26 45  1  0  0  0  0
 27 46  1  0  0  0  0
 27 47  1  0  0  0  0
M  END
