
 OpenBabel10072619573D

 26 26  0  0  0  0  0  0  0  0999 V2000
    6.9629   -0.3188   -2.0132 C   0  0  0  0  0  0  0  0  0  0  0  0
    5.7246   -0.3963   -1.1414 C   0  0  0  0  0  0  0  0  0  0  0  0
    5.8279    0.4916    0.0001 N   0  0  0  0  0  0  0  0  0  0  0  0
    4.8340    0.8088    0.8878 C   0  0  0  0  0  0  0  0  0  0  0  0
    3.2147    0.4425    0.7491 S   0  0  0  0  0  0  0  0  0  0  0  0
    5.2855    1.5092    1.9858 N   0  0  0  0  0  0  0  0  0  0  0  0
    6.6109    1.8128    2.1449 N   0  0  0  0  0  0  0  0  0  0  0  0
    6.8855    2.4562    3.2380 C   0  0  0  0  0  0  0  0  0  0  0  0
    8.2550    2.8830    3.5891 C   0  0  0  0  0  0  0  0  0  0  0  0
    9.3244    2.6554    2.7329 C   0  0  0  0  0  0  0  0  0  0  0  0
   10.5856    3.0856    3.1346 C   0  0  0  0  0  0  0  0  0  0  0  0
   10.7294    3.7203    4.3647 C   0  0  0  0  0  0  0  0  0  0  0  0
    9.6006    3.9041    5.1490 C   0  0  0  0  0  0  0  0  0  0  0  0
    8.3622    3.5007    4.7909 N   0  0  0  0  0  0  0  0  0  0  0  0
    6.8742   -0.9982   -2.8662 H   0  0  0  0  0  0  0  0  0  0  0  0
    7.8589   -0.5939   -1.4468 H   0  0  0  0  0  0  0  0  0  0  0  0
    7.1092    0.6969   -2.3953 H   0  0  0  0  0  0  0  0  0  0  0  0
    5.5902   -1.4145   -0.7612 H   0  0  0  0  0  0  0  0  0  0  0  0
    4.8379   -0.1305   -1.7256 H   0  0  0  0  0  0  0  0  0  0  0  0
    6.7427    0.6916    0.3947 H   0  0  0  0  0  0  0  0  0  0  0  0
    4.6029    1.7826    2.6870 H   0  0  0  0  0  0  0  0  0  0  0  0
    6.1041    2.7211    3.9735 H   0  0  0  0  0  0  0  0  0  0  0  0
    9.1844    2.1600    1.7784 H   0  0  0  0  0  0  0  0  0  0  0  0
   11.4486    2.9276    2.4935 H   0  0  0  0  0  0  0  0  0  0  0  0
   11.7003    4.0653    4.7047 H   0  0  0  0  0  0  0  0  0  0  0  0
    9.6674    4.3960    6.1159 H   0  0  0  0  0  0  0  0  0  0  0  0
  1  2  1  0  0  0  0
  1 15  1  0  0  0  0
  1 16  1  0  0  0  0
  1 17  1  0  0  0  0
  2  3  1  0  0  0  0
  2 18  1  0  0  0  0
  2 19  1  0  0  0  0
  3  4  1  0  0  0  0
  3 20  1  0  0  0  0
  4  5  2  0  0  0  0
  4  6  1  0  0  0  0
  6  7  1  0  0  0  0
  6 21  1  0  0  0  0
  7  8  2  0  0  0  0
  8  9  1  0  0  0  0
  8 22  1  0  0  0  0
  9 10  2  0  0  0  0
  9 14  1  0  0  0  0
 10 11  1  0  0  0  0
 10 23  1  0  0  0  0
 11 12  2  0  0  0  0
 11 24  1  0  0  0  0
 12 13  1  0  0  0  0
 12 25  1  0  0  0  0
 13 14  2  0  0  0  0
 13 26  1  0  0  0  0
M  END
