
 OpenBabel10072619583D

 25 25  0  0  0  0  0  0  0  0999 V2000
    1.2097    0.6171   -1.1762 C   0  0  0  0  0  0  0  0  0  0  0  0
    2.2409    1.3625   -0.3482 C   0  0  0  0  0  0  0  0  0  0  0  0
    3.5723    0.8187   -0.6276 N   0  0  0  0  0  0  0  0  0  0  0  0
    4.9063    1.6248   -0.0037 S   0  0  0  0  0  0  0  0  0  0  0  0
    4.5104    2.2750    1.2245 O   0  0  0  0  0  0  0  0  0  0  0  0
    6.0174    0.7045   -0.0662 O   0  0  0  0  0  0  0  0  0  0  0  0
    5.2030    2.8667   -1.2359 C   0  0  0  0  0  0  0  0  0  0  0  0
    5.6418    2.4747   -2.5016 C   0  0  0  0  0  0  0  0  0  0  0  0
    5.9401    3.4702   -3.4396 C   0  0  0  0  0  0  0  0  0  0  0  0
    5.8047    4.8285   -3.1433 C   0  0  0  0  0  0  0  0  0  0  0  0
    5.3566    5.1968   -1.8702 C   0  0  0  0  0  0  0  0  0  0  0  0
    5.0605    4.2204   -0.9134 C   0  0  0  0  0  0  0  0  0  0  0  0
    6.1534    6.0893   -4.2673 Cl  0  0  0  0  0  0  0  0  0  0  0  0
    6.4242    3.0467   -4.7317 N   0  3  0  0  0  0  0  0  0  0  0  0
    5.6323    2.4120   -5.4396 O   0  0  0  0  0  0  0  0  0  0  0  0
    7.6053    3.2961   -5.0033 O   0  5  0  0  0  0  0  0  0  0  0  0
    0.2127    1.0317   -1.0009 H   0  0  0  0  0  0  0  0  0  0  0  0
    1.1869   -0.4463   -0.9141 H   0  0  0  0  0  0  0  0  0  0  0  0
    1.4279    0.6942   -2.2462 H   0  0  0  0  0  0  0  0  0  0  0  0
    2.0084    1.2352    0.7130 H   0  0  0  0  0  0  0  0  0  0  0  0
    2.2057    2.4279   -0.5959 H   0  0  0  0  0  0  0  0  0  0  0  0
    3.6924   -0.1940   -0.5880 H   0  0  0  0  0  0  0  0  0  0  0  0
    5.7631    1.4197   -2.7424 H   0  0  0  0  0  0  0  0  0  0  0  0
    5.2426    6.2474   -1.6074 H   0  0  0  0  0  0  0  0  0  0  0  0
    4.7359    4.5246    0.0806 H   0  0  0  0  0  0  0  0  0  0  0  0
  1  2  1  0  0  0  0
  1 17  1  0  0  0  0
  1 18  1  0  0  0  0
  1 19  1  0  0  0  0
  2  3  1  0  0  0  0
  2 20  1  0  0  0  0
  2 21  1  0  0  0  0
  3  4  1  0  0  0  0
  3 22  1  0  0  0  0
  4  5  2  0  0  0  0
  4  6  2  0  0  0  0
  4  7  1  0  0  0  0
  7  8  2  0  0  0  0
  7 12  1  0  0  0  0
  8  9  1  0  0  0  0
  8 23  1  0  0  0  0
  9 10  2  0  0  0  0
  9 14  1  0  0  0  0
 10 11  1  0  0  0  0
 10 13  1  0  0  0  0
 11 12  2  0  0  0  0
 11 24  1  0  0  0  0
 12 25  1  0  0  0  0
 14 15  2  0  0  0  0
 14 16  1  0  0  0  0
M  CHG  2  14   1  16  -1
M  END
