
 OpenBabel10072620093D

 72 74  0  0  1  0  0  0  0  0999 V2000
    4.5617   -1.6875   -1.2095 C   0  0  0  0  0  0  0  0  0  0  0  0
    4.4448   -1.3989    0.2780 C   0  0  0  0  0  0  0  0  0  0  0  0
    3.0071   -1.1676    0.7671 C   0  0  3  0  0  0  0  0  0  0  0  0
    2.0326   -2.2499    0.2538 C   0  0  0  0  0  0  0  0  0  0  0  0
    0.6282   -2.2692    0.7390 N   0  0  0  0  0  0  0  0  0  0  0  0
   -0.0809   -3.5274    0.4062 C   0  0  1  0  0  0  0  0  0  0  0  0
   -0.7697   -4.1188    1.6416 C   0  0  1  0  0  0  0  0  0  0  0  0
   -2.1084   -3.4895    2.0474 C   0  0  2  0  0  0  0  0  0  0  0  0
   -2.2686   -1.9822    1.7365 C   0  0  2  0  0  0  0  0  0  0  0  0
   -1.0433   -1.2230    2.0855 N   0  0  0  0  0  0  0  0  0  0  0  0
    0.0231   -1.1006    1.1940 C   0  0  0  0  0  0  0  0  0  0  0  0
    0.5093    0.0047    0.9743 O   0  0  0  0  0  0  0  0  0  0  0  0
   -1.0968   -0.2126    3.1626 C   0  0  0  0  0  0  0  0  0  0  0  0
   -1.1476   -0.8116    4.5813 C   0  0  3  0  0  0  0  0  0  0  0  0
    0.1748   -1.5242    4.8928 C   0  0  0  0  0  0  0  0  0  0  0  0
    0.1518   -2.2509    6.2254 C   0  0  0  0  0  0  0  0  0  0  0  0
   -1.3791    0.2352    5.5330 O   0  0  0  0  0  0  0  0  0  0  0  0
   -3.6251   -1.4168    2.2710 C   0  0  0  0  0  0  0  0  0  0  0  0
   -4.8467   -1.9673    1.5507 C   0  0  0  0  0  0  0  0  0  0  0  0
   -5.4798   -3.1296    2.0121 C   0  0  0  0  0  0  0  0  0  0  0  0
   -6.5630   -3.6739    1.3176 C   0  0  0  0  0  0  0  0  0  0  0  0
   -7.0518   -3.0478    0.1728 C   0  0  0  0  0  0  0  0  0  0  0  0
   -6.4591   -1.8701   -0.2748 C   0  0  0  0  0  0  0  0  0  0  0  0
   -5.3638   -1.3338    0.4085 C   0  0  0  0  0  0  0  0  0  0  0  0
   -2.2920   -3.7208    3.4575 O   0  0  0  0  0  0  0  0  0  0  0  0
   -0.9300   -5.5495    1.5127 O   0  0  0  0  0  0  0  0  0  0  0  0
   -0.9452   -3.4711   -0.8805 C   0  0  0  0  0  0  0  0  0  0  0  0
   -0.1560   -3.2137   -2.1437 C   0  0  0  0  0  0  0  0  0  0  0  0
    0.4427   -4.2769   -2.8290 C   0  0  0  0  0  0  0  0  0  0  0  0
    1.2218   -4.0364   -3.9603 C   0  0  0  0  0  0  0  0  0  0  0  0
    1.4117   -2.7320   -4.4140 C   0  0  0  0  0  0  0  0  0  0  0  0
    0.8086   -1.6674   -3.7481 C   0  0  0  0  0  0  0  0  0  0  0  0
    0.0237   -1.9047   -2.6193 C   0  0  0  0  0  0  0  0  0  0  0  0
    3.0712   -1.1614    2.1995 O   0  0  0  0  0  0  0  0  0  0  0  0
    5.6010   -1.5689   -1.5301 H   0  0  0  0  0  0  0  0  0  0  0  0
    3.9393   -1.0051   -1.7977 H   0  0  0  0  0  0  0  0  0  0  0  0
    4.2551   -2.7156   -1.4338 H   0  0  0  0  0  0  0  0  0  0  0  0
    5.0300   -0.5017    0.5144 H   0  0  0  0  0  0  0  0  0  0  0  0
    4.9150   -2.2092    0.8499 H   0  0  0  0  0  0  0  0  0  0  0  0
    2.6963   -0.1796    0.4094 H   0  0  0  0  0  0  0  0  0  0  0  0
    2.4621   -3.2158    0.5617 H   0  0  0  0  0  0  0  0  0  0  0  0
    2.0044   -2.2319   -0.8348 H   0  0  0  0  0  0  0  0  0  0  0  0
    0.7074   -4.2594    0.1691 H   0  0  0  0  0  0  0  0  0  0  0  0
   -0.0689   -4.0223    2.4791 H   0  0  0  0  0  0  0  0  0  0  0  0
   -2.9144   -4.0433    1.5581 H   0  0  0  0  0  0  0  0  0  0  0  0
   -2.3513   -1.8429    0.6608 H   0  0  0  0  0  0  0  0  0  0  0  0
   -1.9187    0.4857    2.9822 H   0  0  0  0  0  0  0  0  0  0  0  0
   -0.1991    0.4206    3.1301 H   0  0  0  0  0  0  0  0  0  0  0  0
   -1.9841   -1.5053    4.6879 H   0  0  0  0  0  0  0  0  0  0  0  0
    0.9905   -0.7908    4.9114 H   0  0  0  0  0  0  0  0  0  0  0  0
    0.4087   -2.2533    4.1085 H   0  0  0  0  0  0  0  0  0  0  0  0
   -0.2272   -1.6211    7.0359 H   0  0  0  0  0  0  0  0  0  0  0  0
    1.1646   -2.5705    6.4900 H   0  0  0  0  0  0  0  0  0  0  0  0
   -0.4770   -3.1436    6.1542 H   0  0  0  0  0  0  0  0  0  0  0  0
   -0.5695    0.7700    5.5956 H   0  0  0  0  0  0  0  0  0  0  0  0
   -3.6525   -0.3294    2.1368 H   0  0  0  0  0  0  0  0  0  0  0  0
   -3.7347   -1.5836    3.3477 H   0  0  0  0  0  0  0  0  0  0  0  0
   -5.1325   -3.6140    2.9238 H   0  0  0  0  0  0  0  0  0  0  0  0
   -7.0394   -4.5828    1.6769 H   0  0  0  0  0  0  0  0  0  0  0  0
   -7.9079   -3.4635   -0.3534 H   0  0  0  0  0  0  0  0  0  0  0  0
   -6.8612   -1.3646   -1.1514 H   0  0  0  0  0  0  0  0  0  0  0  0
   -4.9332   -0.4003    0.0491 H   0  0  0  0  0  0  0  0  0  0  0  0
   -2.0343   -4.6453    3.6381 H   0  0  0  0  0  0  0  0  0  0  0  0
   -1.6635   -5.7463    0.9071 H   0  0  0  0  0  0  0  0  0  0  0  0
   -1.4711   -4.4261   -0.9967 H   0  0  0  0  0  0  0  0  0  0  0  0
   -1.7267   -2.7157   -0.8436 H   0  0  0  0  0  0  0  0  0  0  0  0
    0.3135   -5.2987   -2.4795 H   0  0  0  0  0  0  0  0  0  0  0  0
    1.6871   -4.8666   -4.4850 H   0  0  0  0  0  0  0  0  0  0  0  0
    2.0354   -2.5453   -5.2844 H   0  0  0  0  0  0  0  0  0  0  0  0
    0.9581   -0.6493   -4.0993 H   0  0  0  0  0  0  0  0  0  0  0  0
   -0.4133   -1.0569   -2.0940 H   0  0  0  0  0  0  0  0  0  0  0  0
    2.2914   -1.6604    2.5152 H   0  0  0  0  0  0  0  0  0  0  0  0
  1  2  1  0  0  0  0
  1 35  1  0  0  0  0
  1 36  1  0  0  0  0
  1 37  1  0  0  0  0
  2  3  1  0  0  0  0
  2 38  1  0  0  0  0
  2 39  1  0  0  0  0
  3  4  1  0  0  0  0
  3 34  1  0  0  0  0
  3 40  1  0  0  0  0
  4  5  1  0  0  0  0
  4 41  1  0  0  0  0
  4 42  1  0  0  0  0
  5  6  1  0  0  0  0
  5 11  1  0  0  0  0
  6  7  1  0  0  0  0
  6 27  1  0  0  0  0
  6 43  1  6  0  0  0
  7  8  1  0  0  0  0
  7 26  1  0  0  0  0
  7 44  1  1  0  0  0
  8  9  1  0  0  0  0
  8 25  1  0  0  0  0
  8 45  1  6  0  0  0
  9 10  1  0  0  0  0
  9 18  1  0  0  0  0
  9 46  1  6  0  0  0
 10 11  1  0  0  0  0
 10 13  1  0  0  0  0
 11 12  2  0  0  0  0
 13 14  1  0  0  0  0
 13 47  1  0  0  0  0
 13 48  1  0  0  0  0
 14 15  1  0  0  0  0
 14 17  1  0  0  0  0
 14 49  1  0  0  0  0
 15 16  1  0  0  0  0
 15 50  1  0  0  0  0
 15 51  1  0  0  0  0
 16 52  1  0  0  0  0
 16 53  1  0  0  0  0
 16 54  1  0  0  0  0
 17 55  1  0  0  0  0
 18 19  1  0  0  0  0
 18 56  1  0  0  0  0
 18 57  1  0  0  0  0
 19 20  2  0  0  0  0
 19 24  1  0  0  0  0
 20 21  1  0  0  0  0
 20 58  1  0  0  0  0
 21 22  2  0  0  0  0
 21 59  1  0  0  0  0
 22 23  1  0  0  0  0
 22 60  1  0  0  0  0
 23 24  2  0  0  0  0
 23 61  1  0  0  0  0
 24 62  1  0  0  0  0
 25 63  1  0  0  0  0
 26 64  1  0  0  0  0
 27 28  1  0  0  0  0
 27 65  1  0  0  0  0
 27 66  1  0  0  0  0
 28 29  2  0  0  0  0
 28 33  1  0  0  0  0
 29 30  1  0  0  0  0
 29 67  1  0  0  0  0
 30 31  2  0  0  0  0
 30 68  1  0  0  0  0
 31 32  1  0  0  0  0
 31 69  1  0  0  0  0
 32 33  2  0  0  0  0
 32 70  1  0  0  0  0
 33 71  1  0  0  0  0
 34 72  1  0  0  0  0
M  END
