
 OpenBabel10072620163D

 51 54  0  0  0  0  0  0  0  0999 V2000
   -4.5893    1.7091   -7.2451 C   0  0  0  0  0  0  0  0  0  0  0  0
   -4.5067    2.1111   -5.8016 C   0  0  0  0  0  0  0  0  0  0  0  0
   -5.6486    2.5231   -5.1044 C   0  0  0  0  0  0  0  0  0  0  0  0
   -5.5672    2.8946   -3.7603 C   0  0  0  0  0  0  0  0  0  0  0  0
   -4.3395    2.8591   -3.1031 C   0  0  0  0  0  0  0  0  0  0  0  0
   -3.1896    2.4885   -3.7960 C   0  0  0  0  0  0  0  0  0  0  0  0
   -3.2737    2.1131   -5.1388 C   0  0  0  0  0  0  0  0  0  0  0  0
   -4.2761    3.2568   -1.7419 N   0  0  0  0  0  0  0  0  0  0  0  0
   -4.0502    2.0800   -0.5522 S   0  0  0  0  0  0  0  0  0  0  0  0
   -3.1693    1.0410   -1.0383 O   0  0  0  0  0  0  0  0  0  0  0  0
   -3.7382    2.8061    0.6646 O   0  0  0  0  0  0  0  0  0  0  0  0
   -5.6837    1.4055   -0.3782 C   0  0  0  0  0  0  0  0  0  0  0  0
   -6.1056    0.4025   -1.2570 C   0  0  0  0  0  0  0  0  0  0  0  0
   -7.4023   -0.1142   -1.1536 C   0  0  0  0  0  0  0  0  0  0  0  0
   -8.2662    0.3509   -0.1594 C   0  0  0  0  0  0  0  0  0  0  0  0
   -7.8228    1.3394    0.7294 C   0  0  0  0  0  0  0  0  0  0  0  0
   -6.5294    1.8630    0.6331 C   0  0  0  0  0  0  0  0  0  0  0  0
   -9.5930    0.0002   -0.0429 O   0  0  0  0  0  0  0  0  0  0  0  0
  -10.0189   -1.2526   -0.4593 C   0  0  0  0  0  0  0  0  0  0  0  0
   -9.2249   -2.3254   -0.2914 N   0  0  0  0  0  0  0  0  0  0  0  0
   -9.6871   -3.5258   -0.6268 C   0  0  0  0  0  0  0  0  0  0  0  0
  -10.9839   -3.7260   -1.1502 C   0  0  0  0  0  0  0  0  0  0  0  0
  -11.8002   -2.5837   -1.2783 C   0  0  0  0  0  0  0  0  0  0  0  0
  -11.3149   -1.3332   -0.9210 C   0  0  0  0  0  0  0  0  0  0  0  0
  -11.3778   -5.0470   -1.4905 C   0  0  0  0  0  0  0  0  0  0  0  0
  -10.4821   -6.0938   -1.2416 C   0  0  0  0  0  0  0  0  0  0  0  0
   -9.2327   -5.8133   -0.7127 C   0  0  0  0  0  0  0  0  0  0  0  0
   -8.8550   -4.5403   -0.4286 N   0  0  0  0  0  0  0  0  0  0  0  0
   -8.2576   -6.9456   -0.4173 C   0  0  0  0  0  0  0  0  0  0  0  0
   -8.7023   -8.1612   -0.8593 F   0  0  0  0  0  0  0  0  0  0  0  0
   -7.0391   -6.7738   -0.9998 F   0  0  0  0  0  0  0  0  0  0  0  0
   -8.0329   -7.1094    0.9159 F   0  0  0  0  0  0  0  0  0  0  0  0
  -12.7223   -5.4246   -2.0599 C   0  0  0  0  0  0  0  0  0  0  0  0
  -13.3670   -4.4299   -2.7215 F   0  0  0  0  0  0  0  0  0  0  0  0
  -12.6252   -6.4489   -2.9552 F   0  0  0  0  0  0  0  0  0  0  0  0
  -13.5827   -5.8586   -1.1004 F   0  0  0  0  0  0  0  0  0  0  0  0
   -5.5840    1.3180   -7.4847 H   0  0  0  0  0  0  0  0  0  0  0  0
   -3.8661    0.9155   -7.4632 H   0  0  0  0  0  0  0  0  0  0  0  0
   -4.3826    2.5651   -7.8953 H   0  0  0  0  0  0  0  0  0  0  0  0
   -6.6157    2.5436   -5.6008 H   0  0  0  0  0  0  0  0  0  0  0  0
   -6.4665    3.2074   -3.2370 H   0  0  0  0  0  0  0  0  0  0  0  0
   -2.2231    2.4741   -3.2991 H   0  0  0  0  0  0  0  0  0  0  0  0
   -2.3704    1.8062   -5.6611 H   0  0  0  0  0  0  0  0  0  0  0  0
   -3.7893    4.1248   -1.5240 H   0  0  0  0  0  0  0  0  0  0  0  0
   -5.4398    0.0431   -2.0393 H   0  0  0  0  0  0  0  0  0  0  0  0
   -7.7205   -0.8764   -1.8585 H   0  0  0  0  0  0  0  0  0  0  0  0
   -8.4937    1.7136    1.4980 H   0  0  0  0  0  0  0  0  0  0  0  0
   -6.1984    2.6191    1.3420 H   0  0  0  0  0  0  0  0  0  0  0  0
  -12.8205   -2.6410   -1.6429 H   0  0  0  0  0  0  0  0  0  0  0  0
  -11.9378   -0.4483   -0.9933 H   0  0  0  0  0  0  0  0  0  0  0  0
  -10.7678   -7.1229   -1.4605 H   0  0  0  0  0  0  0  0  0  0  0  0
  1  2  1  0  0  0  0
  1 37  1  0  0  0  0
  1 38  1  0  0  0  0
  1 39  1  0  0  0  0
  2  3  2  0  0  0  0
  2  7  1  0  0  0  0
  3  4  1  0  0  0  0
  3 40  1  0  0  0  0
  4  5  2  0  0  0  0
  4 41  1  0  0  0  0
  5  6  1  0  0  0  0
  5  8  1  0  0  0  0
  6  7  2  0  0  0  0
  6 42  1  0  0  0  0
  7 43  1  0  0  0  0
  8  9  1  0  0  0  0
  8 44  1  0  0  0  0
  9 10  2  0  0  0  0
  9 11  2  0  0  0  0
  9 12  1  0  0  0  0
 12 13  2  0  0  0  0
 12 17  1  0  0  0  0
 13 14  1  0  0  0  0
 13 45  1  0  0  0  0
 14 15  2  0  0  0  0
 14 46  1  0  0  0  0
 15 16  1  0  0  0  0
 15 18  1  0  0  0  0
 16 17  2  0  0  0  0
 16 47  1  0  0  0  0
 17 48  1  0  0  0  0
 18 19  1  0  0  0  0
 19 20  2  0  0  0  0
 19 24  1  0  0  0  0
 20 21  1  0  0  0  0
 21 22  2  0  0  0  0
 21 28  1  0  0  0  0
 22 23  1  0  0  0  0
 22 25  1  0  0  0  0
 23 24  2  0  0  0  0
 23 49  1  0  0  0  0
 24 50  1  0  0  0  0
 25 26  2  0  0  0  0
 25 33  1  0  0  0  0
 26 27  1  0  0  0  0
 26 51  1  0  0  0  0
 27 28  2  0  0  0  0
 27 29  1  0  0  0  0
 29 30  1  0  0  0  0
 29 31  1  0  0  0  0
 29 32  1  0  0  0  0
 33 34  1  0  0  0  0
 33 35  1  0  0  0  0
 33 36  1  0  0  0  0
M  END
