
 OpenBabel10072619513D

 65 68  0  0  0  0  0  0  0  0999 V2000
    1.1777    0.1109   -0.0887 C   0  0  0  0  0  0  0  0  0  0  0  0
    2.6413    0.2069   -0.0146 N   0  0  0  0  0  0  0  0  0  0  0  0
    3.2871   -0.7668    0.7681 C   0  0  0  0  0  0  0  0  0  0  0  0
    2.9028   -2.1135    0.7381 C   0  0  0  0  0  0  0  0  0  0  0  0
    3.5359   -3.0666    1.5448 C   0  0  0  0  0  0  0  0  0  0  0  0
    4.5576   -2.6891    2.4173 C   0  0  0  0  0  0  0  0  0  0  0  0
    4.9529   -1.3509    2.4554 C   0  0  0  0  0  0  0  0  0  0  0  0
    4.3297   -0.4047    1.6333 C   0  0  0  0  0  0  0  0  0  0  0  0
    5.1794   -3.5816    3.3125 N   0  0  0  0  0  0  0  0  0  0  0  0
    5.1674   -4.9604    3.2269 C   0  0  0  0  0  0  0  0  0  0  0  0
    4.8441   -5.5929    2.2279 O   0  0  0  0  0  0  0  0  0  0  0  0
    5.5332   -5.5300    4.4351 N   0  0  0  0  0  0  0  0  0  0  0  0
    5.5929   -6.9191    4.6828 C   0  0  0  0  0  0  0  0  0  0  0  0
    5.3827   -7.3643    5.9896 C   0  0  0  0  0  0  0  0  0  0  0  0
    5.3538   -8.7217    6.2983 C   0  0  0  0  0  0  0  0  0  0  0  0
    5.5617   -9.6644    5.2892 C   0  0  0  0  0  0  0  0  0  0  0  0
    5.8221   -9.2414    3.9759 C   0  0  0  0  0  0  0  0  0  0  0  0
    5.8424   -7.8634    3.6870 C   0  0  0  0  0  0  0  0  0  0  0  0
    6.0768  -10.2189    2.8520 C   0  0  0  0  0  0  0  0  0  0  0  0
    6.0243  -11.5249    3.2349 F   0  0  0  0  0  0  0  0  0  0  0  0
    5.1821  -10.0915    1.8337 F   0  0  0  0  0  0  0  0  0  0  0  0
    7.3067  -10.0435    2.2951 F   0  0  0  0  0  0  0  0  0  0  0  0
    5.1556   -6.4674    6.9626 F   0  0  0  0  0  0  0  0  0  0  0  0
    3.2071    1.0606   -0.9893 C   0  0  0  0  0  0  0  0  0  0  0  0
    2.4074    1.9619   -1.5881 N   0  0  0  0  0  0  0  0  0  0  0  0
    2.9009    2.7730   -2.5332 C   0  0  0  0  0  0  0  0  0  0  0  0
    4.1742    2.7477   -2.9367 N   0  0  0  0  0  0  0  0  0  0  0  0
    4.9662    1.8446   -2.3335 C   0  0  0  0  0  0  0  0  0  0  0  0
    4.5346    0.9762   -1.3565 C   0  0  0  0  0  0  0  0  0  0  0  0
    2.0488    3.6681   -3.1792 N   0  0  0  0  0  0  0  0  0  0  0  0
    0.9104    4.3006   -2.6578 C   0  0  0  0  0  0  0  0  0  0  0  0
    0.7202    4.5075   -1.2873 C   0  0  0  0  0  0  0  0  0  0  0  0
   -0.4145    5.1625   -0.8076 C   0  0  0  0  0  0  0  0  0  0  0  0
   -1.3974    5.5947   -1.6930 C   0  0  0  0  0  0  0  0  0  0  0  0
   -1.2597    5.3603   -3.0675 C   0  0  0  0  0  0  0  0  0  0  0  0
   -0.0854    4.7423   -3.5381 C   0  0  0  0  0  0  0  0  0  0  0  0
   -2.3286    5.7780   -4.0449 C   0  0  0  0  0  0  0  0  0  0  0  0
   -3.8498    4.8561   -3.8055 S   0  0  0  0  0  0  0  0  0  0  0  0
   -4.4189    5.1967   -2.5117 O   0  0  0  0  0  0  0  0  0  0  0  0
   -4.6450    5.0215   -5.0108 O   0  0  0  0  0  0  0  0  0  0  0  0
   -3.3555    3.1505   -3.7491 C   0  0  0  0  0  0  0  0  0  0  0  0
    0.7593   -0.3990    0.7889 H   0  0  0  0  0  0  0  0  0  0  0  0
    0.8702   -0.4406   -0.9862 H   0  0  0  0  0  0  0  0  0  0  0  0
    0.7012    1.0995   -0.1004 H   0  0  0  0  0  0  0  0  0  0  0  0
    2.1080   -2.4488    0.0754 H   0  0  0  0  0  0  0  0  0  0  0  0
    3.1904   -4.0947    1.4843 H   0  0  0  0  0  0  0  0  0  0  0  0
    5.7481   -1.0203    3.1181 H   0  0  0  0  0  0  0  0  0  0  0  0
    4.6392    0.6359    1.6993 H   0  0  0  0  0  0  0  0  0  0  0  0
    5.8518   -3.1896    3.9549 H   0  0  0  0  0  0  0  0  0  0  0  0
    5.3609   -4.9579    5.2533 H   0  0  0  0  0  0  0  0  0  0  0  0
    5.1568   -9.0332    7.3196 H   0  0  0  0  0  0  0  0  0  0  0  0
    5.5289  -10.7261    5.5337 H   0  0  0  0  0  0  0  0  0  0  0  0
    6.0628   -7.5522    2.6669 H   0  0  0  0  0  0  0  0  0  0  0  0
    5.9970    1.8222   -2.6760 H   0  0  0  0  0  0  0  0  0  0  0  0
    5.2105    0.2435   -0.9390 H   0  0  0  0  0  0  0  0  0  0  0  0
    2.5895    4.2230   -3.8285 H   0  0  0  0  0  0  0  0  0  0  0  0
    1.4710    4.1828   -0.5713 H   0  0  0  0  0  0  0  0  0  0  0  0
   -0.5321    5.3290    0.2603 H   0  0  0  0  0  0  0  0  0  0  0  0
   -2.2755    6.1041   -1.2949 H   0  0  0  0  0  0  0  0  0  0  0  0
    0.0468    4.5727   -4.6057 H   0  0  0  0  0  0  0  0  0  0  0  0
   -2.0098    5.5992   -5.0786 H   0  0  0  0  0  0  0  0  0  0  0  0
   -2.5638    6.8411   -3.9361 H   0  0  0  0  0  0  0  0  0  0  0  0
   -2.7648    2.9717   -2.8498 H   0  0  0  0  0  0  0  0  0  0  0  0
   -2.7858    2.9214   -4.6518 H   0  0  0  0  0  0  0  0  0  0  0  0
   -4.2630    2.5425   -3.7190 H   0  0  0  0  0  0  0  0  0  0  0  0
  1  2  1  0  0  0  0
  1 42  1  0  0  0  0
  1 43  1  0  0  0  0
  1 44  1  0  0  0  0
  2  3  1  0  0  0  0
  2 24  1  0  0  0  0
  3  4  2  0  0  0  0
  3  8  1  0  0  0  0
  4  5  1  0  0  0  0
  4 45  1  0  0  0  0
  5  6  2  0  0  0  0
  5 46  1  0  0  0  0
  6  7  1  0  0  0  0
  6  9  1  0  0  0  0
  7  8  2  0  0  0  0
  7 47  1  0  0  0  0
  8 48  1  0  0  0  0
  9 10  1  0  0  0  0
  9 49  1  0  0  0  0
 10 11  2  0  0  0  0
 10 12  1  0  0  0  0
 12 13  1  0  0  0  0
 12 50  1  0  0  0  0
 13 14  2  0  0  0  0
 13 18  1  0  0  0  0
 14 15  1  0  0  0  0
 14 23  1  0  0  0  0
 15 16  2  0  0  0  0
 15 51  1  0  0  0  0
 16 17  1  0  0  0  0
 16 52  1  0  0  0  0
 17 18  2  0  0  0  0
 17 19  1  0  0  0  0
 18 53  1  0  0  0  0
 19 20  1  0  0  0  0
 19 21  1  0  0  0  0
 19 22  1  0  0  0  0
 24 25  2  0  0  0  0
 24 29  1  0  0  0  0
 25 26  1  0  0  0  0
 26 27  2  0  0  0  0
 26 30  1  0  0  0  0
 27 28  1  0  0  0  0
 28 29  2  0  0  0  0
 28 54  1  0  0  0  0
 29 55  1  0  0  0  0
 30 31  1  0  0  0  0
 30 56  1  0  0  0  0
 31 32  2  0  0  0  0
 31 36  1  0  0  0  0
 32 33  1  0  0  0  0
 32 57  1  0  0  0  0
 33 34  2  0  0  0  0
 33 58  1  0  0  0  0
 34 35  1  0  0  0  0
 34 59  1  0  0  0  0
 35 36  2  0  0  0  0
 35 37  1  0  0  0  0
 36 60  1  0  0  0  0
 37 38  1  0  0  0  0
 37 61  1  0  0  0  0
 37 62  1  0  0  0  0
 38 39  2  0  0  0  0
 38 40  2  0  0  0  0
 38 41  1  0  0  0  0
 41 63  1  0  0  0  0
 41 64  1  0  0  0  0
 41 65  1  0  0  0  0
M  END
