
 OpenBabel10072620123D

120126  0  0  1  0  0  0  0  0999 V2000
    1.8812   -5.0226   -2.7007 C   0  0  0  0  0  0  0  0  0  0  0  0
    1.3267   -4.3826   -1.4269 C   0  0  3  0  0  0  0  0  0  0  0  0
    2.0407   -4.7385   -0.1042 C   0  0  2  0  0  0  0  0  0  0  0  0
    1.3349   -5.8178    0.7229 C   0  0  3  0  0  0  0  0  0  0  0  0
   -0.1817   -5.6412    0.7518 C   0  0  3  0  0  0  0  0  0  0  0  0
   -0.7671   -5.4171   -0.6531 C   0  0  2  0  0  0  0  0  0  0  0  0
   -0.1010   -4.3974   -1.3872 O   0  0  0  0  0  0  0  0  0  0  0  0
   -2.1878   -5.1442   -0.5191 O   0  0  0  0  0  0  0  0  0  0  0  0
   -2.5965   -3.8400   -0.9339 C   0  0  2  0  0  0  0  0  0  0  0  0
   -2.1298   -2.7117    0.0077 C   0  0  3  0  0  0  0  0  0  0  0  0
   -2.3899   -1.4447   -0.6088 O   0  0  0  0  0  0  0  0  0  0  0  0
   -3.7077   -1.2104   -1.0974 C   0  0  1  0  0  0  0  0  0  0  0  0
   -4.4847   -2.4211   -1.6851 C   0  0  3  0  0  0  0  0  0  0  0  0
   -4.1232   -3.7849   -1.0937 C   0  0  3  0  0  0  0  0  0  0  0  0
   -4.8301   -4.0150    0.1291 O   0  0  0  0  0  0  0  0  0  0  0  0
   -5.8979   -2.2100   -1.7041 O   0  0  0  0  0  0  0  0  0  0  0  0
   -4.4754   -0.4382   -0.1643 O   0  0  0  0  0  0  0  0  0  0  0  0
   -4.2436    0.9714   -0.3428 C   0  0  2  0  0  0  0  0  0  0  0  0
   -2.9251    1.4721    0.2918 C   0  0  3  0  0  0  0  0  0  0  0  0
   -2.7287    2.8891    0.1537 O   0  0  0  0  0  0  0  0  0  0  0  0
   -3.6591    3.5663   -0.6613 C   0  0  1  0  0  0  0  0  0  0  0  0
   -5.1190    3.3312   -0.1627 C   0  0  3  0  0  0  0  0  0  0  0  0
   -5.4194    1.8387    0.1266 C   0  0  3  0  0  0  0  0  0  0  0  0
   -5.7022    1.6387    1.5156 O   0  0  0  0  0  0  0  0  0  0  0  0
   -5.4077    4.0971    1.0223 O   0  0  0  0  0  0  0  0  0  0  0  0
   -3.3892    4.9557   -0.6195 O   0  0  0  0  0  0  0  0  0  0  0  0
   -2.1964    5.5042   -1.2106 C   0  0  2  0  0  0  0  0  0  0  0  0
   -1.0524    4.6365   -1.8195 C   0  0  3  0  0  0  0  0  0  0  0  0
   -0.3569    3.8908   -0.8038 O   0  0  0  0  0  0  0  0  0  0  0  0
    0.3452    4.7519    0.0975 C   0  0  1  0  0  0  0  0  0  0  0  0
   -0.6590    5.6705    0.8463 C   0  0  3  0  0  0  0  0  0  0  0  0
   -1.5281    6.4394   -0.1644 C   0  0  3  0  0  0  0  0  0  0  0  0
   -2.5189    7.2072    0.5315 O   0  0  0  0  0  0  0  0  0  0  0  0
   -1.5379    4.9427    1.7312 O   0  0  0  0  0  0  0  0  0  0  0  0
    1.0771    4.0137    1.0728 O   0  0  0  0  0  0  0  0  0  0  0  0
    1.9583    2.9831    0.6111 C   0  0  2  0  0  0  0  0  0  0  0  0
    2.7543    2.4208    1.8178 C   0  0  3  0  0  0  0  0  0  0  0  0
    3.9240    1.6543    1.5022 O   0  0  0  0  0  0  0  0  0  0  0  0
    3.9601    1.1142    0.1937 C   0  0  1  0  0  0  0  0  0  0  0  0
    4.0117    2.2990   -0.8037 C   0  0  3  0  0  0  0  0  0  0  0  0
    2.8430    3.2931   -0.6145 C   0  0  3  0  0  0  0  0  0  0  0  0
    3.3236    4.6432   -0.6113 O   0  0  0  0  0  0  0  0  0  0  0  0
    5.2551    3.0333   -0.6535 O   0  0  0  0  0  0  0  0  0  0  0  0
    5.1918    0.4088    0.0540 O   0  0  0  0  0  0  0  0  0  0  0  0
    5.3906   -0.8770    0.6584 C   0  0  2  0  0  0  0  0  0  0  0  0
    5.1723   -2.0285   -0.3561 C   0  0  3  0  0  0  0  0  0  0  0  0
    3.7943   -2.4482   -0.3956 O   0  0  0  0  0  0  0  0  0  0  0  0
    3.3667   -2.9908    0.8560 C   0  0  2  0  0  0  0  0  0  0  0  0
    2.0522   -3.5468    0.7245 O   0  0  0  0  0  0  0  0  0  0  0  0
    3.3471   -1.8837    1.9293 C   0  0  3  0  0  0  0  0  0  0  0  0
    4.7542   -1.2690    2.0200 C   0  0  3  0  0  0  0  0  0  0  0  0
    4.8488   -0.2572    3.0120 O   0  0  0  0  0  0  0  0  0  0  0  0
    2.3613   -0.8925    1.6158 O   0  0  0  0  0  0  0  0  0  0  0  0
    5.5949   -1.6293   -1.7662 C   0  0  0  0  0  0  0  0  0  0  0  0
    5.8064   -3.2353   -2.8662 Br  0  0  0  0  0  0  0  0  0  0  0  0
    3.1097    3.4140    2.9281 C   0  0  0  0  0  0  0  0  0  0  0  0
    4.4903    4.6918    2.4281 Br  0  0  0  0  0  0  0  0  0  0  0  0
   -1.4665    3.6817   -2.9317 C   0  0  0  0  0  0  0  0  0  0  0  0
    0.0814    3.2672   -4.0697 Br  0  0  0  0  0  0  0  0  0  0  0  0
   -2.8371    1.1572    1.7813 C   0  0  0  0  0  0  0  0  0  0  0  0
   -1.0059    1.4160    2.4148 Br  0  0  0  0  0  0  0  0  0  0  0  0
   -2.6933   -2.8391    1.4273 C   0  0  0  0  0  0  0  0  0  0  0  0
   -1.3726   -2.2777    2.7618 Br  0  0  0  0  0  0  0  0  0  0  0  0
   -0.7832   -6.7805    1.3866 O   0  0  0  0  0  0  0  0  0  0  0  0
    1.6705   -7.1524    0.3258 O   0  0  0  0  0  0  0  0  0  0  0  0
    1.6713   -6.9446   -2.8119 Br  0  0  0  0  0  0  0  0  0  0  0  0
    2.9522   -4.8299   -2.8065 H   0  0  0  0  0  0  0  0  0  0  0  0
    1.3626   -4.6325   -3.5825 H   0  0  0  0  0  0  0  0  0  0  0  0
    1.5360   -3.3168   -1.5903 H   0  0  0  0  0  0  0  0  0  0  0  0
    3.0679   -5.0586   -0.3191 H   0  0  0  0  0  0  0  0  0  0  0  0
    1.6846   -5.7531    1.7615 H   0  0  0  0  0  0  0  0  0  0  0  0
   -0.4216   -4.7774    1.3748 H   0  0  0  0  0  0  0  0  0  0  0  0
   -0.7273   -6.3524   -1.2185 H   0  0  0  0  0  0  0  0  0  0  0  0
   -2.2030   -3.6587   -1.9435 H   0  0  0  0  0  0  0  0  0  0  0  0
   -1.0386   -2.7541    0.0795 H   0  0  0  0  0  0  0  0  0  0  0  0
   -3.5453   -0.5842   -1.9826 H   0  0  0  0  0  0  0  0  0  0  0  0
   -4.1768   -2.4779   -2.7375 H   0  0  0  0  0  0  0  0  0  0  0  0
   -4.4620   -4.5749   -1.7743 H   0  0  0  0  0  0  0  0  0  0  0  0
   -4.6142   -4.9290    0.4055 H   0  0  0  0  0  0  0  0  0  0  0  0
   -6.1790   -2.3012   -0.7706 H   0  0  0  0  0  0  0  0  0  0  0  0
   -4.2010    1.1592   -1.4232 H   0  0  0  0  0  0  0  0  0  0  0  0
   -2.0873    0.9953   -0.2287 H   0  0  0  0  0  0  0  0  0  0  0  0
   -3.6083    3.2221   -1.6953 H   0  0  0  0  0  0  0  0  0  0  0  0
   -5.8007    3.6982   -0.9390 H   0  0  0  0  0  0  0  0  0  0  0  0
   -6.3268    1.5295   -0.4045 H   0  0  0  0  0  0  0  0  0  0  0  0
   -5.9250    2.5321    1.8592 H   0  0  0  0  0  0  0  0  0  0  0  0
   -4.8394    4.8934    0.9561 H   0  0  0  0  0  0  0  0  0  0  0  0
   -2.5879    6.1454   -2.0115 H   0  0  0  0  0  0  0  0  0  0  0  0
   -0.3315    5.3448   -2.2550 H   0  0  0  0  0  0  0  0  0  0  0  0
    1.0391    5.3843   -0.4647 H   0  0  0  0  0  0  0  0  0  0  0  0
   -0.1231    6.3729    1.4948 H   0  0  0  0  0  0  0  0  0  0  0  0
   -0.8904    7.1533   -0.7006 H   0  0  0  0  0  0  0  0  0  0  0  0
   -2.8705    6.5859    1.2046 H   0  0  0  0  0  0  0  0  0  0  0  0
   -1.4355    3.9931    1.5191 H   0  0  0  0  0  0  0  0  0  0  0  0
    1.3063    2.1566    0.2946 H   0  0  0  0  0  0  0  0  0  0  0  0
    2.0783    1.7096    2.3088 H   0  0  0  0  0  0  0  0  0  0  0  0
    3.1100    0.4693   -0.0397 H   0  0  0  0  0  0  0  0  0  0  0  0
    4.0224    1.9150   -1.8299 H   0  0  0  0  0  0  0  0  0  0  0  0
    2.2002    3.2209   -1.4986 H   0  0  0  0  0  0  0  0  0  0  0  0
    4.2954    4.5618   -0.4774 H   0  0  0  0  0  0  0  0  0  0  0  0
    5.8884    2.3990   -0.2596 H   0  0  0  0  0  0  0  0  0  0  0  0
    6.4730   -0.8531    0.8517 H   0  0  0  0  0  0  0  0  0  0  0  0
    5.7687   -2.8902   -0.0247 H   0  0  0  0  0  0  0  0  0  0  0  0
    4.0515   -3.7888    1.1732 H   0  0  0  0  0  0  0  0  0  0  0  0
    3.0526   -2.3000    2.9002 H   0  0  0  0  0  0  0  0  0  0  0  0
    5.3873   -2.0795    2.4095 H   0  0  0  0  0  0  0  0  0  0  0  0
    4.3900    0.5301    2.6496 H   0  0  0  0  0  0  0  0  0  0  0  0
    1.5167   -1.3752    1.5134 H   0  0  0  0  0  0  0  0  0  0  0  0
    4.8386   -1.0262   -2.2751 H   0  0  0  0  0  0  0  0  0  0  0  0
    6.5672   -1.1303   -1.7866 H   0  0  0  0  0  0  0  0  0  0  0  0
    2.2536    3.9916    3.2819 H   0  0  0  0  0  0  0  0  0  0  0  0
    3.5472    2.8807    3.7782 H   0  0  0  0  0  0  0  0  0  0  0  0
   -2.2113    4.1118   -3.6055 H   0  0  0  0  0  0  0  0  0  0  0  0
   -1.7721    2.6989   -2.5684 H   0  0  0  0  0  0  0  0  0  0  0  0
   -3.4178    1.8512    2.3904 H   0  0  0  0  0  0  0  0  0  0  0  0
   -3.1104    0.1317    2.0200 H   0  0  0  0  0  0  0  0  0  0  0  0
   -3.5804   -2.2299    1.6064 H   0  0  0  0  0  0  0  0  0  0  0  0
   -2.8768   -3.8799    1.7061 H   0  0  0  0  0  0  0  0  0  0  0  0
   -0.1551   -7.5268    1.2825 H   0  0  0  0  0  0  0  0  0  0  0  0
    1.5279   -7.2661   -0.6338 H   0  0  0  0  0  0  0  0  0  0  0  0
  1  2  1  0  0  0  0
  1 66  1  0  0  0  0
  1 67  1  0  0  0  0
  1 68  1  0  0  0  0
  2  3  1  0  0  0  0
  2  7  1  0  0  0  0
  2 69  1  0  0  0  0
  3  4  1  0  0  0  0
  3 49  1  0  0  0  0
  3 70  1  6  0  0  0
  4  5  1  0  0  0  0
  4 65  1  0  0  0  0
  4 71  1  0  0  0  0
  5  6  1  0  0  0  0
  5 64  1  0  0  0  0
  5 72  1  0  0  0  0
  6  7  1  0  0  0  0
  6  8  1  0  0  0  0
  6 73  1  6  0  0  0
  8  9  1  0  0  0  0
  9 10  1  0  0  0  0
  9 14  1  0  0  0  0
  9 74  1  6  0  0  0
 10 11  1  0  0  0  0
 10 62  1  0  0  0  0
 10 75  1  0  0  0  0
 11 12  1  0  0  0  0
 12 13  1  0  0  0  0
 12 17  1  0  0  0  0
 12 76  1  6  0  0  0
 13 14  1  0  0  0  0
 13 16  1  0  0  0  0
 13 77  1  0  0  0  0
 14 15  1  0  0  0  0
 14 78  1  0  0  0  0
 15 79  1  0  0  0  0
 16 80  1  0  0  0  0
 17 18  1  0  0  0  0
 18 19  1  0  0  0  0
 18 23  1  0  0  0  0
 18 81  1  6  0  0  0
 19 20  1  0  0  0  0
 19 60  1  0  0  0  0
 19 82  1  0  0  0  0
 20 21  1  0  0  0  0
 21 22  1  0  0  0  0
 21 26  1  0  0  0  0
 21 83  1  6  0  0  0
 22 23  1  0  0  0  0
 22 25  1  0  0  0  0
 22 84  1  0  0  0  0
 23 24  1  0  0  0  0
 23 85  1  0  0  0  0
 24 86  1  0  0  0  0
 25 87  1  0  0  0  0
 26 27  1  0  0  0  0
 27 28  1  0  0  0  0
 27 32  1  0  0  0  0
 27 88  1  6  0  0  0
 28 29  1  0  0  0  0
 28 58  1  0  0  0  0
 28 89  1  0  0  0  0
 29 30  1  0  0  0  0
 30 31  1  0  0  0  0
 30 35  1  0  0  0  0
 30 90  1  6  0  0  0
 31 32  1  0  0  0  0
 31 34  1  0  0  0  0
 31 91  1  0  0  0  0
 32 33  1  0  0  0  0
 32 92  1  0  0  0  0
 33 93  1  0  0  0  0
 34 94  1  0  0  0  0
 35 36  1  0  0  0  0
 36 37  1  0  0  0  0
 36 41  1  0  0  0  0
 36 95  1  6  0  0  0
 37 38  1  0  0  0  0
 37 56  1  0  0  0  0
 37 96  1  0  0  0  0
 38 39  1  0  0  0  0
 39 40  1  0  0  0  0
 39 44  1  0  0  0  0
 39 97  1  6  0  0  0
 40 41  1  0  0  0  0
 40 43  1  0  0  0  0
 40 98  1  0  0  0  0
 41 42  1  0  0  0  0
 41 99  1  0  0  0  0
 42100  1  0  0  0  0
 43101  1  0  0  0  0
 44 45  1  0  0  0  0
 45 46  1  0  0  0  0
 45 51  1  0  0  0  0
 45102  1  1  0  0  0
 46 47  1  0  0  0  0
 46 54  1  0  0  0  0
 46103  1  0  0  0  0
 47 48  1  0  0  0  0
 48 49  1  0  0  0  0
 48 50  1  0  0  0  0
 48104  1  1  0  0  0
 50 51  1  0  0  0  0
 50 53  1  0  0  0  0
 50105  1  0  0  0  0
 51 52  1  0  0  0  0
 51106  1  0  0  0  0
 52107  1  0  0  0  0
 53108  1  0  0  0  0
 54 55  1  0  0  0  0
 54109  1  0  0  0  0
 54110  1  0  0  0  0
 56 57  1  0  0  0  0
 56111  1  0  0  0  0
 56112  1  0  0  0  0
 58 59  1  0  0  0  0
 58113  1  0  0  0  0
 58114  1  0  0  0  0
 60 61  1  0  0  0  0
 60115  1  0  0  0  0
 60116  1  0  0  0  0
 62 63  1  0  0  0  0
 62117  1  0  0  0  0
 62118  1  0  0  0  0
 64119  1  0  0  0  0
 65120  1  0  0  0  0
M  END
