
 OpenBabel10072620213D

 46 48  0  0  0  0  0  0  0  0999 V2000
    4.9576   -2.5884   -2.5979 C   0  0  0  0  0  0  0  0  0  0  0  0
    4.1195   -3.5502   -3.1761 C   0  0  0  0  0  0  0  0  0  0  0  0
    3.6355   -4.6048   -2.4082 C   0  0  0  0  0  0  0  0  0  0  0  0
    3.9793   -4.7038   -1.0641 C   0  0  0  0  0  0  0  0  0  0  0  0
    4.8148   -3.7416   -0.4883 C   0  0  0  0  0  0  0  0  0  0  0  0
    5.3288   -2.6863   -1.2551 C   0  0  0  0  0  0  0  0  0  0  0  0
    6.1389   -1.7440   -0.5855 N   0  0  0  0  0  0  0  0  0  0  0  0
    7.0789   -0.8416   -1.0710 C   0  0  0  0  0  0  0  0  0  0  0  0
    7.8610   -0.8756   -2.5551 S   0  0  0  0  0  0  0  0  0  0  0  0
    7.3891    0.0914   -0.0764 N   0  0  0  0  0  0  0  0  0  0  0  0
    8.2221    1.1844   -0.3665 N   0  0  0  0  0  0  0  0  0  0  0  0
    8.1033    2.3197    0.4103 C   0  0  0  0  0  0  0  0  0  0  0  0
    7.2171    2.4394    1.2577 O   0  0  0  0  0  0  0  0  0  0  0  0
    9.0872    3.4126    0.0967 C   0  0  0  0  0  0  0  0  0  0  0  0
   10.4198    2.9961    0.4455 N   0  0  0  0  0  0  0  0  0  0  0  0
   11.1262    2.1479   -0.3306 N   0  0  0  0  0  0  0  0  0  0  0  0
   12.2403    2.0182    0.4150 C   0  0  0  0  0  0  0  0  0  0  0  0
   12.1890    2.7654    1.5690 N   0  0  0  0  0  0  0  0  0  0  0  0
   11.0255    3.3983    1.5700 N   0  0  0  0  0  0  0  0  0  0  0  0
   13.3742    1.1669    0.0759 C   0  0  0  0  0  0  0  0  0  0  0  0
   13.4845    0.5966   -1.2009 C   0  0  0  0  0  0  0  0  0  0  0  0
   14.5605   -0.2436   -1.5301 C   0  0  0  0  0  0  0  0  0  0  0  0
   15.5339   -0.5163   -0.5547 C   0  0  0  0  0  0  0  0  0  0  0  0
   15.4492    0.0429    0.7294 C   0  0  0  0  0  0  0  0  0  0  0  0
   14.3677    0.8905    1.0290 C   0  0  0  0  0  0  0  0  0  0  0  0
   16.4785   -0.2742    1.7904 C   0  0  0  0  0  0  0  0  0  0  0  0
   17.4779   -1.0876    1.3493 F   0  0  0  0  0  0  0  0  0  0  0  0
   17.0888    0.8407    2.2756 F   0  0  0  0  0  0  0  0  0  0  0  0
   15.9316   -0.9045    2.8656 F   0  0  0  0  0  0  0  0  0  0  0  0
   14.6739   -0.8672   -2.9016 C   0  0  0  0  0  0  0  0  0  0  0  0
   13.6889   -0.4856   -3.7593 F   0  0  0  0  0  0  0  0  0  0  0  0
   15.8480   -0.5553   -3.5159 F   0  0  0  0  0  0  0  0  0  0  0  0
   14.6261   -2.2263   -2.8511 F   0  0  0  0  0  0  0  0  0  0  0  0
    2.5977   -5.7794   -3.1151 Cl  0  0  0  0  0  0  0  0  0  0  0  0
    5.2671   -1.7531   -3.2174 H   0  0  0  0  0  0  0  0  0  0  0  0
    3.8446   -3.4600   -4.2236 H   0  0  0  0  0  0  0  0  0  0  0  0
    3.6037   -5.5234   -0.4581 H   0  0  0  0  0  0  0  0  0  0  0  0
    5.0736   -3.8446    0.5629 H   0  0  0  0  0  0  0  0  0  0  0  0
    6.1569   -1.8387    0.4231 H   0  0  0  0  0  0  0  0  0  0  0  0
    6.6847    0.2912    0.6359 H   0  0  0  0  0  0  0  0  0  0  0  0
    9.0342    1.0016   -0.9594 H   0  0  0  0  0  0  0  0  0  0  0  0
    8.8400    4.3142    0.6644 H   0  0  0  0  0  0  0  0  0  0  0  0
    9.0624    3.6542   -0.9703 H   0  0  0  0  0  0  0  0  0  0  0  0
   12.7235    0.8095   -1.9529 H   0  0  0  0  0  0  0  0  0  0  0  0
   16.3644   -1.1804   -0.8027 H   0  0  0  0  0  0  0  0  0  0  0  0
   14.2984    1.3233    2.0287 H   0  0  0  0  0  0  0  0  0  0  0  0
  1  2  2  0  0  0  0
  1  6  1  0  0  0  0
  1 35  1  0  0  0  0
  2  3  1  0  0  0  0
  2 36  1  0  0  0  0
  3  4  2  0  0  0  0
  3 34  1  0  0  0  0
  4  5  1  0  0  0  0
  4 37  1  0  0  0  0
  5  6  2  0  0  0  0
  5 38  1  0  0  0  0
  6  7  1  0  0  0  0
  7  8  1  0  0  0  0
  7 39  1  0  0  0  0
  8  9  2  0  0  0  0
  8 10  1  0  0  0  0
 10 11  1  0  0  0  0
 10 40  1  0  0  0  0
 11 12  1  0  0  0  0
 11 41  1  0  0  0  0
 12 13  2  0  0  0  0
 12 14  1  0  0  0  0
 14 15  1  0  0  0  0
 14 42  1  0  0  0  0
 14 43  1  0  0  0  0
 15 16  1  0  0  0  0
 15 19  1  0  0  0  0
 16 17  2  0  0  0  0
 17 18  1  0  0  0  0
 17 20  1  0  0  0  0
 18 19  2  0  0  0  0
 20 21  2  0  0  0  0
 20 25  1  0  0  0  0
 21 22  1  0  0  0  0
 21 44  1  0  0  0  0
 22 23  2  0  0  0  0
 22 30  1  0  0  0  0
 23 24  1  0  0  0  0
 23 45  1  0  0  0  0
 24 25  2  0  0  0  0
 24 26  1  0  0  0  0
 25 46  1  0  0  0  0
 26 27  1  0  0  0  0
 26 28  1  0  0  0  0
 26 29  1  0  0  0  0
 30 31  1  0  0  0  0
 30 32  1  0  0  0  0
 30 33  1  0  0  0  0
M  END
