
 OpenBabel10072619593D

 43 44  0  0  0  0  0  0  0  0999 V2000
    1.2738    0.4120   -0.0578 C   0  0  0  0  0  0  0  0  0  0  0  0
    1.5218   -0.9022   -0.0589 C   0  0  0  0  0  0  0  0  0  0  0  0
    0.3338   -1.8169   -0.0282 C   0  0  0  0  0  0  0  0  0  0  0  0
    0.4846   -3.0408   -0.0327 O   0  0  0  0  0  0  0  0  0  0  0  0
   -0.8972   -1.2259    0.0040 N   0  0  0  0  0  0  0  0  0  0  0  0
   -1.1238    0.1210    0.0129 C   0  0  0  0  0  0  0  0  0  0  0  0
   -2.2520    0.5978    0.0497 O   0  0  0  0  0  0  0  0  0  0  0  0
   -0.0048    0.9042   -0.0261 N   0  0  0  0  0  0  0  0  0  0  0  0
    2.7614   -1.5107   -0.0796 N   0  0  0  0  0  0  0  0  0  0  0  0
    3.9857   -0.9107   -0.2259 C   0  0  0  0  0  0  0  0  0  0  0  0
    4.1742    0.2850   -0.4242 O   0  0  0  0  0  0  0  0  0  0  0  0
    5.0205   -1.8181   -0.1344 N   0  0  0  0  0  0  0  0  0  0  0  0
    6.3881   -1.3284   -0.1866 C   0  0  0  0  0  0  0  0  0  0  0  0
    7.4083   -2.4629   -0.1715 C   0  0  0  0  0  0  0  0  0  0  0  0
    8.8248   -1.9047   -0.2692 C   0  0  0  0  0  0  0  0  0  0  0  0
    9.8441   -2.9295   -0.1987 N   0  0  0  0  0  0  0  0  0  0  0  0
   10.2732   -3.4373    1.0021 C   0  0  0  0  0  0  0  0  0  0  0  0
    9.7496   -3.1449    2.0710 O   0  0  0  0  0  0  0  0  0  0  0  0
   11.3886   -4.2186    0.8504 N   0  0  0  0  0  0  0  0  0  0  0  0
   12.1626   -4.7689    1.8495 C   0  0  0  0  0  0  0  0  0  0  0  0
   11.8379   -4.9042    3.1387 C   0  0  0  0  0  0  0  0  0  0  0  0
   12.7126   -5.4340    4.0501 N   0  0  0  0  0  0  0  0  0  0  0  0
   13.9798   -5.8414    3.7404 C   0  0  0  0  0  0  0  0  0  0  0  0
   14.7406   -6.2971    4.5866 O   0  0  0  0  0  0  0  0  0  0  0  0
   14.3385   -5.7099    2.4299 N   0  0  0  0  0  0  0  0  0  0  0  0
   13.5258   -5.2368    1.4424 C   0  0  0  0  0  0  0  0  0  0  0  0
   13.8852   -5.1684    0.2631 O   0  0  0  0  0  0  0  0  0  0  0  0
    2.0558    1.1657   -0.0734 H   0  0  0  0  0  0  0  0  0  0  0  0
   -1.7075   -1.8239    0.0235 H   0  0  0  0  0  0  0  0  0  0  0  0
   -0.1620    1.9050   -0.0294 H   0  0  0  0  0  0  0  0  0  0  0  0
    2.7366   -2.5250   -0.0944 H   0  0  0  0  0  0  0  0  0  0  0  0
    4.8439   -2.5946    0.4867 H   0  0  0  0  0  0  0  0  0  0  0  0
    6.5337   -0.6565    0.6682 H   0  0  0  0  0  0  0  0  0  0  0  0
    6.4970   -0.7281   -1.0979 H   0  0  0  0  0  0  0  0  0  0  0  0
    7.2155   -3.1488   -1.0062 H   0  0  0  0  0  0  0  0  0  0  0  0
    7.2896   -3.0505    0.7475 H   0  0  0  0  0  0  0  0  0  0  0  0
    9.0051   -1.1881    0.5396 H   0  0  0  0  0  0  0  0  0  0  0  0
    8.9655   -1.3798   -1.2199 H   0  0  0  0  0  0  0  0  0  0  0  0
   10.0780   -3.4349   -1.0391 H   0  0  0  0  0  0  0  0  0  0  0  0
   11.8329   -4.2183   -0.0618 H   0  0  0  0  0  0  0  0  0  0  0  0
   10.8714   -4.6140    3.5361 H   0  0  0  0  0  0  0  0  0  0  0  0
   12.4387   -5.5205    5.0226 H   0  0  0  0  0  0  0  0  0  0  0  0
   15.2669   -6.0125    2.1785 H   0  0  0  0  0  0  0  0  0  0  0  0
  1  2  2  0  0  0  0
  1  8  1  0  0  0  0
  1 28  1  0  0  0  0
  2  3  1  0  0  0  0
  2  9  1  0  0  0  0
  3  4  2  0  0  0  0
  3  5  1  0  0  0  0
  5  6  1  0  0  0  0
  5 29  1  0  0  0  0
  6  7  2  0  0  0  0
  6  8  1  0  0  0  0
  8 30  1  0  0  0  0
  9 10  1  0  0  0  0
  9 31  1  0  0  0  0
 10 11  2  0  0  0  0
 10 12  1  0  0  0  0
 12 13  1  0  0  0  0
 12 32  1  0  0  0  0
 13 14  1  0  0  0  0
 13 33  1  0  0  0  0
 13 34  1  0  0  0  0
 14 15  1  0  0  0  0
 14 35  1  0  0  0  0
 14 36  1  0  0  0  0
 15 16  1  0  0  0  0
 15 37  1  0  0  0  0
 15 38  1  0  0  0  0
 16 17  1  0  0  0  0
 16 39  1  0  0  0  0
 17 18  2  0  0  0  0
 17 19  1  0  0  0  0
 19 20  1  0  0  0  0
 19 40  1  0  0  0  0
 20 21  2  0  0  0  0
 20 26  1  0  0  0  0
 21 22  1  0  0  0  0
 21 41  1  0  0  0  0
 22 23  1  0  0  0  0
 22 42  1  0  0  0  0
 23 24  2  0  0  0  0
 23 25  1  0  0  0  0
 25 26  1  0  0  0  0
 25 43  1  0  0  0  0
 26 27  2  0  0  0  0
M  END
