
 OpenBabel10072619583D

 19 18  0  0  0  0  0  0  0  0999 V2000
    0.8705   -0.0465    0.0935 C   0  0  0  0  0  0  0  0  0  0  0  0
    2.4035   -0.0987    0.0552 C   0  0  0  0  0  0  0  0  0  0  0  0
    2.9433   -0.3942    1.4620 C   0  0  0  0  0  0  0  0  0  0  0  0
    2.8678   -1.1940   -0.9139 C   0  0  0  0  0  0  0  0  0  0  0  0
    3.0677    1.5245   -0.4769 S   0  0  0  0  0  0  0  0  0  0  0  0
    2.4881    2.5818    0.3188 O   0  0  0  0  0  0  0  0  0  0  0  0
    4.4935    1.4308   -0.6893 O   0  0  0  0  0  0  0  0  0  0  0  0
    2.4156    1.7280   -2.0065 N   0  0  0  0  0  0  0  0  0  0  0  0
    0.4530   -1.0004    0.4349 H   0  0  0  0  0  0  0  0  0  0  0  0
    0.4498    0.1631   -0.8957 H   0  0  0  0  0  0  0  0  0  0  0  0
    0.5138    0.7347    0.7737 H   0  0  0  0  0  0  0  0  0  0  0  0
    2.5764   -1.3576    1.8329 H   0  0  0  0  0  0  0  0  0  0  0  0
    2.6364    0.3787    2.1755 H   0  0  0  0  0  0  0  0  0  0  0  0
    4.0385   -0.4277    1.4682 H   0  0  0  0  0  0  0  0  0  0  0  0
    2.5039   -2.1782   -0.5983 H   0  0  0  0  0  0  0  0  0  0  0  0
    3.9609   -1.2449   -0.9658 H   0  0  0  0  0  0  0  0  0  0  0  0
    2.4993   -1.0157   -1.9297 H   0  0  0  0  0  0  0  0  0  0  0  0
    1.8085    2.5499   -2.0177 H   0  0  0  0  0  0  0  0  0  0  0  0
    3.1651    1.7708   -2.6997 H   0  0  0  0  0  0  0  0  0  0  0  0
  1  2  1  0  0  0  0
  1  9  1  0  0  0  0
  1 10  1  0  0  0  0
  1 11  1  0  0  0  0
  2  3  1  0  0  0  0
  2  4  1  0  0  0  0
  2  5  1  0  0  0  0
  3 12  1  0  0  0  0
  3 13  1  0  0  0  0
  3 14  1  0  0  0  0
  4 15  1  0  0  0  0
  4 16  1  0  0  0  0
  4 17  1  0  0  0  0
  5  6  2  0  0  0  0
  5  7  2  0  0  0  0
  5  8  1  0  0  0  0
  8 18  1  0  0  0  0
  8 19  1  0  0  0  0
M  END
