
 OpenBabel10072620173D

 80 83  0  0  1  0  0  0  0  0999 V2000
   -0.3631   -3.6845    0.8298 C   0  0  0  0  0  0  0  0  0  0  0  0
   -0.0467   -2.1860    0.8018 C   0  0  3  0  0  0  0  0  0  0  0  0
   -1.2541   -1.3579    0.3221 C   0  0  0  0  0  0  0  0  0  0  0  0
   -1.4974   -1.4743   -1.1946 C   0  0  3  0  0  0  0  0  0  0  0  0
   -0.1978   -1.1699   -1.9563 C   0  0  0  0  0  0  0  0  0  0  0  0
    0.8754   -2.0515   -1.4875 N   0  0  0  0  0  0  0  0  0  0  0  0
    1.1904   -1.9100   -0.0655 C   0  0  0  0  0  0  0  0  0  0  0  0
    1.6675   -2.9081   -2.2539 C   0  0  0  0  0  0  0  0  0  0  0  0
    2.6713   -3.4629   -1.8060 O   0  0  0  0  0  0  0  0  0  0  0  0
    1.3272   -3.2201   -3.6671 C   0  0  0  0  0  0  0  0  0  0  0  0
    2.3705   -3.3355   -4.5928 C   0  0  0  0  0  0  0  0  0  0  0  0
    2.1138   -3.7212   -5.9253 C   0  0  0  0  0  0  0  0  0  0  0  0
    0.8039   -4.0120   -6.3579 C   0  0  0  0  0  0  0  0  0  0  0  0
   -0.2172   -3.9191   -5.3949 C   0  0  0  0  0  0  0  0  0  0  0  0
    0.0352   -3.5509   -4.0657 C   0  0  0  0  0  0  0  0  0  0  0  0
    0.4941   -4.4261   -7.6524 N   0  0  0  0  0  0  0  0  0  0  0  0
   -0.6874   -3.9385   -8.3586 C   0  0  0  0  0  0  0  0  0  0  0  0
   -0.5019   -2.4873   -8.8141 C   0  0  0  0  0  0  0  0  0  0  0  0
   -1.7596   -1.9477   -9.4484 C   0  0  0  0  0  0  0  0  0  0  0  0
   -2.5979   -1.0731   -8.7395 C   0  0  0  0  0  0  0  0  0  0  0  0
   -3.7758   -0.5625   -9.3142 C   0  0  0  0  0  0  0  0  0  0  0  0
   -4.1440   -0.9802  -10.6041 C   0  0  0  0  0  0  0  0  0  0  0  0
   -3.3153   -1.8769  -11.2945 C   0  0  0  0  0  0  0  0  0  0  0  0
   -2.1292   -2.3479  -10.7330 C   0  0  0  0  0  0  0  0  0  0  0  0
   -5.2486   -0.6343  -11.3376 O   0  0  0  0  0  0  0  0  0  0  0  0
   -6.1004    0.3871  -10.8460 C   0  0  0  0  0  0  0  0  0  0  0  0
   -4.6063    0.2809   -8.6241 O   0  0  0  0  0  0  0  0  0  0  0  0
   -3.9918    1.1417   -7.6721 C   0  0  0  0  0  0  0  0  0  0  0  0
    3.5322   -3.9136   -6.9974 S   0  0  0  0  0  0  0  0  0  0  0  0
    4.6512   -4.3620   -6.1964 O   0  0  0  0  0  0  0  0  0  0  0  0
    3.1121   -4.6552   -8.1738 O   0  0  0  0  0  0  0  0  0  0  0  0
    3.8275   -2.3518   -7.5664 N   0  0  0  0  0  0  0  0  0  0  0  0
    4.2174   -1.3224   -6.6683 C   0  0  0  0  0  0  0  0  0  0  0  0
    5.4580   -1.3684   -6.0252 C   0  0  0  0  0  0  0  0  0  0  0  0
    5.8380   -0.3439   -5.1577 C   0  0  0  0  0  0  0  0  0  0  0  0
    4.9573    0.7187   -4.9323 C   0  0  0  0  0  0  0  0  0  0  0  0
    3.7269    0.7766   -5.5900 C   0  0  0  0  0  0  0  0  0  0  0  0
    3.3555   -0.2460   -6.4601 C   0  0  0  0  0  0  0  0  0  0  0  0
    7.0290   -0.2588   -4.4869 O   0  0  0  0  0  0  0  0  0  0  0  0
    7.9414   -1.3394   -4.6634 C   0  0  0  0  0  0  0  0  0  0  0  0
   -2.6347   -0.5534   -1.6364 C   0  0  0  0  0  0  0  0  0  0  0  0
   -1.2286   -3.8847    1.4695 H   0  0  0  0  0  0  0  0  0  0  0  0
    0.4850   -4.2494    1.2320 H   0  0  0  0  0  0  0  0  0  0  0  0
   -0.5800   -4.0801   -0.1670 H   0  0  0  0  0  0  0  0  0  0  0  0
    0.1810   -1.8853    1.8327 H   0  0  0  0  0  0  0  0  0  0  0  0
   -1.0758   -0.3046    0.5758 H   0  0  0  0  0  0  0  0  0  0  0  0
   -2.1556   -1.6563    0.8700 H   0  0  0  0  0  0  0  0  0  0  0  0
   -1.7984   -2.5053   -1.4195 H   0  0  0  0  0  0  0  0  0  0  0  0
    0.1267   -0.1398   -1.7564 H   0  0  0  0  0  0  0  0  0  0  0  0
   -0.3378   -1.2436   -3.0357 H   0  0  0  0  0  0  0  0  0  0  0  0
    1.5376   -0.8812    0.0888 H   0  0  0  0  0  0  0  0  0  0  0  0
    2.0127   -2.5676    0.2368 H   0  0  0  0  0  0  0  0  0  0  0  0
    3.3936   -3.1498   -4.2654 H   0  0  0  0  0  0  0  0  0  0  0  0
   -1.2350   -4.2086   -5.6470 H   0  0  0  0  0  0  0  0  0  0  0  0
   -0.7776   -3.5756   -3.3450 H   0  0  0  0  0  0  0  0  0  0  0  0
    1.3018   -4.5898   -8.2621 H   0  0  0  0  0  0  0  0  0  0  0  0
   -1.5916   -4.0477   -7.7532 H   0  0  0  0  0  0  0  0  0  0  0  0
   -0.8422   -4.5793   -9.2369 H   0  0  0  0  0  0  0  0  0  0  0  0
    0.3193   -2.4258   -9.5402 H   0  0  0  0  0  0  0  0  0  0  0  0
   -0.2048   -1.8461   -7.9723 H   0  0  0  0  0  0  0  0  0  0  0  0
   -2.3260   -0.8150   -7.7198 H   0  0  0  0  0  0  0  0  0  0  0  0
   -3.6020   -2.2107  -12.2900 H   0  0  0  0  0  0  0  0  0  0  0  0
   -1.5080   -3.0363  -11.3034 H   0  0  0  0  0  0  0  0  0  0  0  0
   -6.8827    0.5511  -11.5931 H   0  0  0  0  0  0  0  0  0  0  0  0
   -5.5609    1.3318  -10.7242 H   0  0  0  0  0  0  0  0  0  0  0  0
   -6.6010    0.0752   -9.9256 H   0  0  0  0  0  0  0  0  0  0  0  0
   -4.7161    1.9211   -7.4172 H   0  0  0  0  0  0  0  0  0  0  0  0
   -3.1022    1.6324   -8.0828 H   0  0  0  0  0  0  0  0  0  0  0  0
   -3.7550    0.5971   -6.7530 H   0  0  0  0  0  0  0  0  0  0  0  0
    3.2227   -2.1017   -8.3465 H   0  0  0  0  0  0  0  0  0  0  0  0
    6.1185   -2.2055   -6.2283 H   0  0  0  0  0  0  0  0  0  0  0  0
    5.2430    1.5172   -4.2518 H   0  0  0  0  0  0  0  0  0  0  0  0
    3.0639    1.6217   -5.4212 H   0  0  0  0  0  0  0  0  0  0  0  0
    2.3956   -0.1915   -6.9634 H   0  0  0  0  0  0  0  0  0  0  0  0
    8.8254   -1.1387   -4.0493 H   0  0  0  0  0  0  0  0  0  0  0  0
    8.2713   -1.4122   -5.7060 H   0  0  0  0  0  0  0  0  0  0  0  0
    7.5050   -2.2831   -4.3193 H   0  0  0  0  0  0  0  0  0  0  0  0
   -2.4062    0.4995   -1.4406 H   0  0  0  0  0  0  0  0  0  0  0  0
   -3.5598   -0.7993   -1.1039 H   0  0  0  0  0  0  0  0  0  0  0  0
   -2.8289   -0.6633   -2.7084 H   0  0  0  0  0  0  0  0  0  0  0  0
  1  2  1  0  0  0  0
  1 42  1  0  0  0  0
  1 43  1  0  0  0  0
  1 44  1  0  0  0  0
  2  3  1  0  0  0  0
  2  7  1  0  0  0  0
  2 45  1  0  0  0  0
  3  4  1  0  0  0  0
  3 46  1  0  0  0  0
  3 47  1  0  0  0  0
  4  5  1  0  0  0  0
  4 41  1  0  0  0  0
  4 48  1  0  0  0  0
  5  6  1  0  0  0  0
  5 49  1  0  0  0  0
  5 50  1  0  0  0  0
  6  7  1  0  0  0  0
  6  8  1  0  0  0  0
  7 51  1  0  0  0  0
  7 52  1  0  0  0  0
  8  9  2  0  0  0  0
  8 10  1  0  0  0  0
 10 11  2  0  0  0  0
 10 15  1  0  0  0  0
 11 12  1  0  0  0  0
 11 53  1  0  0  0  0
 12 13  2  0  0  0  0
 12 29  1  0  0  0  0
 13 14  1  0  0  0  0
 13 16  1  0  0  0  0
 14 15  2  0  0  0  0
 14 54  1  0  0  0  0
 15 55  1  0  0  0  0
 16 17  1  0  0  0  0
 16 56  1  0  0  0  0
 17 18  1  0  0  0  0
 17 57  1  0  0  0  0
 17 58  1  0  0  0  0
 18 19  1  0  0  0  0
 18 59  1  0  0  0  0
 18 60  1  0  0  0  0
 19 20  2  0  0  0  0
 19 24  1  0  0  0  0
 20 21  1  0  0  0  0
 20 61  1  0  0  0  0
 21 22  2  0  0  0  0
 21 27  1  0  0  0  0
 22 23  1  0  0  0  0
 22 25  1  0  0  0  0
 23 24  2  0  0  0  0
 23 62  1  0  0  0  0
 24 63  1  0  0  0  0
 25 26  1  0  0  0  0
 26 64  1  0  0  0  0
 26 65  1  0  0  0  0
 26 66  1  0  0  0  0
 27 28  1  0  0  0  0
 28 67  1  0  0  0  0
 28 68  1  0  0  0  0
 28 69  1  0  0  0  0
 29 30  2  0  0  0  0
 29 31  2  0  0  0  0
 29 32  1  0  0  0  0
 32 33  1  0  0  0  0
 32 70  1  0  0  0  0
 33 34  2  0  0  0  0
 33 38  1  0  0  0  0
 34 35  1  0  0  0  0
 34 71  1  0  0  0  0
 35 36  2  0  0  0  0
 35 39  1  0  0  0  0
 36 37  1  0  0  0  0
 36 72  1  0  0  0  0
 37 38  2  0  0  0  0
 37 73  1  0  0  0  0
 38 74  1  0  0  0  0
 39 40  1  0  0  0  0
 40 75  1  0  0  0  0
 40 76  1  0  0  0  0
 40 77  1  0  0  0  0
 41 78  1  0  0  0  0
 41 79  1  0  0  0  0
 41 80  1  0  0  0  0
M  END
