
 OpenBabel10072620223D

 72 74  0  0  1  0  0  0  0  0999 V2000
   -3.1968    3.2648    3.3194 C   0  0  0  0  0  0  0  0  0  0  0  0
   -2.0946    2.4249    3.4710 C   0  0  0  0  0  0  0  0  0  0  0  0
   -1.7676    1.5162    2.4636 C   0  0  0  0  0  0  0  0  0  0  0  0
   -2.5394    1.4351    1.2971 C   0  0  0  0  0  0  0  0  0  0  0  0
   -3.6404    2.2934    1.1519 C   0  0  0  0  0  0  0  0  0  0  0  0
   -3.9687    3.1998    2.1617 C   0  0  0  0  0  0  0  0  0  0  0  0
   -2.1711    0.4418    0.2128 C   0  0  0  0  0  0  0  0  0  0  0  0
   -3.2705   -0.6104   -0.1268 C   0  0  2  0  0  0  0  0  0  0  0  0
   -3.6879   -1.3795    1.1592 C   0  0  1  0  0  0  0  0  0  0  0  0
   -4.8946   -2.3134    0.9368 C   0  0  2  0  0  0  0  0  0  0  0  0
   -4.4612   -3.7098    0.4315 C   0  0  2  0  0  0  0  0  0  0  0  0
   -3.2718   -3.6225   -0.4560 N   0  0  0  0  0  0  0  0  0  0  0  0
   -3.3663   -2.7696   -1.5534 C   0  0  0  0  0  0  0  0  0  0  0  0
   -3.6099   -3.2022   -2.6755 O   0  0  0  0  0  0  0  0  0  0  0  0
   -2.9094   -1.4647   -1.3203 N   0  0  0  0  0  0  0  0  0  0  0  0
   -2.4558   -0.7721   -2.5408 C   0  0  0  0  0  0  0  0  0  0  0  0
   -3.5559    0.0278   -3.2451 C   0  0  0  0  0  0  0  0  0  0  0  0
   -3.0392    0.7980   -4.4615 C   0  0  0  0  0  0  0  0  0  0  0  0
   -2.5988   -0.1024   -5.6081 C   0  0  0  0  0  0  0  0  0  0  0  0
   -2.1456    0.6969   -6.6923 O   0  0  0  0  0  0  0  0  0  0  0  0
   -2.6272   -4.9155   -0.7462 C   0  0  0  0  0  0  0  0  0  0  0  0
   -1.1625   -4.7582   -1.1869 C   0  0  0  0  0  0  0  0  0  0  0  0
   -0.5421   -6.1187   -1.5055 C   0  0  0  0  0  0  0  0  0  0  0  0
    0.9016   -5.9991   -1.9771 C   0  0  0  0  0  0  0  0  0  0  0  0
    1.3857   -7.2855   -2.3421 O   0  0  0  0  0  0  0  0  0  0  0  0
   -5.6345   -4.5123   -0.1884 C   0  0  0  0  0  0  0  0  0  0  0  0
   -6.7379   -4.8458    0.7914 C   0  0  0  0  0  0  0  0  0  0  0  0
   -7.9636   -4.1675    0.7462 C   0  0  0  0  0  0  0  0  0  0  0  0
   -8.9951   -4.5037    1.6253 C   0  0  0  0  0  0  0  0  0  0  0  0
   -8.8100   -5.5173    2.5630 C   0  0  0  0  0  0  0  0  0  0  0  0
   -7.5910   -6.1893    2.6273 C   0  0  0  0  0  0  0  0  0  0  0  0
   -6.5586   -5.8543    1.7487 C   0  0  0  0  0  0  0  0  0  0  0  0
   -5.8729   -1.6844    0.0971 O   0  0  0  0  0  0  0  0  0  0  0  0
   -2.5672   -2.0643    1.7325 O   0  0  0  0  0  0  0  0  0  0  0  0
   -3.4533    3.9705    4.1045 H   0  0  0  0  0  0  0  0  0  0  0  0
   -1.4905    2.4767    4.3726 H   0  0  0  0  0  0  0  0  0  0  0  0
   -0.9070    0.8647    2.6002 H   0  0  0  0  0  0  0  0  0  0  0  0
   -4.2516    2.2653    0.2533 H   0  0  0  0  0  0  0  0  0  0  0  0
   -4.8278    3.8565    2.0433 H   0  0  0  0  0  0  0  0  0  0  0  0
   -1.2392   -0.0782    0.4697 H   0  0  0  0  0  0  0  0  0  0  0  0
   -1.9367    1.0534   -0.6649 H   0  0  0  0  0  0  0  0  0  0  0  0
   -4.1536   -0.0524   -0.4586 H   0  0  0  0  0  0  0  0  0  0  0  0
   -4.0146   -0.6462    1.9051 H   0  0  0  0  0  0  0  0  0  0  0  0
   -5.3863   -2.4640    1.9070 H   0  0  0  0  0  0  0  0  0  0  0  0
   -4.0960   -4.2545    1.3150 H   0  0  0  0  0  0  0  0  0  0  0  0
   -2.0463   -1.5231   -3.2283 H   0  0  0  0  0  0  0  0  0  0  0  0
   -1.6055   -0.1321   -2.2907 H   0  0  0  0  0  0  0  0  0  0  0  0
   -3.9838    0.7572   -2.5480 H   0  0  0  0  0  0  0  0  0  0  0  0
   -4.3729   -0.6398   -3.5448 H   0  0  0  0  0  0  0  0  0  0  0  0
   -2.2074    1.4518   -4.1706 H   0  0  0  0  0  0  0  0  0  0  0  0
   -3.8287    1.4699   -4.8215 H   0  0  0  0  0  0  0  0  0  0  0  0
   -3.4207   -0.7351   -5.9562 H   0  0  0  0  0  0  0  0  0  0  0  0
   -1.7668   -0.7466   -5.3110 H   0  0  0  0  0  0  0  0  0  0  0  0
   -2.9161    1.1729   -7.0526 H   0  0  0  0  0  0  0  0  0  0  0  0
   -3.1990   -5.4365   -1.5242 H   0  0  0  0  0  0  0  0  0  0  0  0
   -2.6516   -5.5269    0.1656 H   0  0  0  0  0  0  0  0  0  0  0  0
   -0.5925   -4.2531   -0.3954 H   0  0  0  0  0  0  0  0  0  0  0  0
   -1.0979   -4.1226   -2.0792 H   0  0  0  0  0  0  0  0  0  0  0  0
   -1.1289   -6.6266   -2.2825 H   0  0  0  0  0  0  0  0  0  0  0  0
   -0.5821   -6.7716   -0.6243 H   0  0  0  0  0  0  0  0  0  0  0  0
    1.5513   -5.5939   -1.1941 H   0  0  0  0  0  0  0  0  0  0  0  0
    0.9738   -5.3504   -2.8563 H   0  0  0  0  0  0  0  0  0  0  0  0
    1.3449   -7.8533   -1.5534 H   0  0  0  0  0  0  0  0  0  0  0  0
   -5.2720   -5.4669   -0.5904 H   0  0  0  0  0  0  0  0  0  0  0  0
   -6.0488   -3.9877   -1.0584 H   0  0  0  0  0  0  0  0  0  0  0  0
   -8.1268   -3.3700    0.0238 H   0  0  0  0  0  0  0  0  0  0  0  0
   -9.9446   -3.9768    1.5750 H   0  0  0  0  0  0  0  0  0  0  0  0
   -9.6153   -5.7837    3.2425 H   0  0  0  0  0  0  0  0  0  0  0  0
   -7.4475   -6.9810    3.3582 H   0  0  0  0  0  0  0  0  0  0  0  0
   -5.6184   -6.3970    1.8083 H   0  0  0  0  0  0  0  0  0  0  0  0
   -5.5858   -1.7639   -0.8314 H   0  0  0  0  0  0  0  0  0  0  0  0
   -2.1974   -2.6113    1.0099 H   0  0  0  0  0  0  0  0  0  0  0  0
  1  2  2  0  0  0  0
  1  6  1  0  0  0  0
  1 35  1  0  0  0  0
  2  3  1  0  0  0  0
  2 36  1  0  0  0  0
  3  4  2  0  0  0  0
  3 37  1  0  0  0  0
  4  5  1  0  0  0  0
  4  7  1  0  0  0  0
  5  6  2  0  0  0  0
  5 38  1  0  0  0  0
  6 39  1  0  0  0  0
  7  8  1  0  0  0  0
  7 40  1  0  0  0  0
  7 41  1  0  0  0  0
  8  9  1  0  0  0  0
  8 15  1  0  0  0  0
  8 42  1  6  0  0  0
  9 10  1  0  0  0  0
  9 34  1  0  0  0  0
  9 43  1  1  0  0  0
 10 11  1  0  0  0  0
 10 33  1  0  0  0  0
 10 44  1  1  0  0  0
 11 12  1  0  0  0  0
 11 26  1  0  0  0  0
 11 45  1  1  0  0  0
 12 13  1  0  0  0  0
 12 21  1  0  0  0  0
 13 14  2  0  0  0  0
 13 15  1  0  0  0  0
 15 16  1  0  0  0  0
 16 17  1  0  0  0  0
 16 46  1  0  0  0  0
 16 47  1  0  0  0  0
 17 18  1  0  0  0  0
 17 48  1  0  0  0  0
 17 49  1  0  0  0  0
 18 19  1  0  0  0  0
 18 50  1  0  0  0  0
 18 51  1  0  0  0  0
 19 20  1  0  0  0  0
 19 52  1  0  0  0  0
 19 53  1  0  0  0  0
 20 54  1  0  0  0  0
 21 22  1  0  0  0  0
 21 55  1  0  0  0  0
 21 56  1  0  0  0  0
 22 23  1  0  0  0  0
 22 57  1  0  0  0  0
 22 58  1  0  0  0  0
 23 24  1  0  0  0  0
 23 59  1  0  0  0  0
 23 60  1  0  0  0  0
 24 25  1  0  0  0  0
 24 61  1  0  0  0  0
 24 62  1  0  0  0  0
 25 63  1  0  0  0  0
 26 27  1  0  0  0  0
 26 64  1  0  0  0  0
 26 65  1  0  0  0  0
 27 28  2  0  0  0  0
 27 32  1  0  0  0  0
 28 29  1  0  0  0  0
 28 66  1  0  0  0  0
 29 30  2  0  0  0  0
 29 67  1  0  0  0  0
 30 31  1  0  0  0  0
 30 68  1  0  0  0  0
 31 32  2  0  0  0  0
 31 69  1  0  0  0  0
 32 70  1  0  0  0  0
 33 71  1  0  0  0  0
 34 72  1  0  0  0  0
M  END
