
 OpenBabel10072616343D

 71 73  0  0  1  0  0  0  0  0999 V2000
    3.3109    0.3920    1.9191 C   0  0  0  0  0  0  0  0  0  0  0  0
    3.2509   -0.1750    0.5112 C   0  0  0  0  0  0  0  0  0  0  0  0
    4.1651   -1.3862    0.3433 C   0  0  0  0  0  0  0  0  0  0  0  0
    4.0395   -1.9978   -1.0624 C   0  0  0  0  0  0  0  0  0  0  0  0
    4.8078   -3.2533   -1.1786 N   0  0  0  0  0  0  0  0  0  0  0  0
    6.2516   -3.0620   -1.4870 C   0  0  1  0  0  0  0  0  0  0  0  0
    7.1485   -3.8138   -0.4931 C   0  0  1  0  0  0  0  0  0  0  0  0
    7.2928   -5.3119   -0.7693 C   0  0  2  0  0  0  0  0  0  0  0  0
    6.0022   -5.9974   -1.2684 C   0  0  2  0  0  0  0  0  0  0  0  0
    4.8417   -5.5618   -0.4634 N   0  0  0  0  0  0  0  0  0  0  0  0
    4.1711   -4.3605   -0.6306 C   0  0  0  0  0  0  0  0  0  0  0  0
    3.0114   -4.2544   -0.2118 O   0  0  0  0  0  0  0  0  0  0  0  0
    4.2582   -6.4821    0.5199 C   0  0  0  0  0  0  0  0  0  0  0  0
    3.2050   -7.3378   -0.1188 C   0  0  0  0  0  0  0  0  0  0  0  0
    2.9488   -8.6392    0.1172 C   0  0  0  0  0  0  0  0  0  0  0  0
    3.6696   -9.4929    1.1226 C   0  0  0  0  0  0  0  0  0  0  0  0
    1.8464   -9.3341   -0.6351 C   0  0  0  0  0  0  0  0  0  0  0  0
    6.1861   -7.5371   -1.4258 C   0  0  0  0  0  0  0  0  0  0  0  0
    7.3373   -7.9096   -2.3372 C   0  0  0  0  0  0  0  0  0  0  0  0
    8.5798   -8.2547   -1.7837 C   0  0  0  0  0  0  0  0  0  0  0  0
    9.6748   -8.5164   -2.6046 C   0  0  0  0  0  0  0  0  0  0  0  0
    9.5367   -8.4519   -3.9885 C   0  0  0  0  0  0  0  0  0  0  0  0
    8.3028   -8.1264   -4.5515 C   0  0  0  0  0  0  0  0  0  0  0  0
    7.2063   -7.8535   -3.7308 C   0  0  0  0  0  0  0  0  0  0  0  0
    7.7764   -5.9193    0.4469 O   0  0  0  0  0  0  0  0  0  0  0  0
    8.4614   -3.2268   -0.4621 O   0  0  0  0  0  0  0  0  0  0  0  0
    6.6488   -3.2264   -2.9810 C   0  0  0  0  0  0  0  0  0  0  0  0
    6.0178   -2.2217   -3.9235 C   0  0  0  0  0  0  0  0  0  0  0  0
    6.7040   -1.0566   -4.2925 C   0  0  0  0  0  0  0  0  0  0  0  0
    6.1187   -0.1385   -5.1683 C   0  0  0  0  0  0  0  0  0  0  0  0
    4.8423   -0.3715   -5.6787 C   0  0  0  0  0  0  0  0  0  0  0  0
    4.1499   -1.5250   -5.3157 C   0  0  0  0  0  0  0  0  0  0  0  0
    4.7348   -2.4472   -4.4453 C   0  0  0  0  0  0  0  0  0  0  0  0
    2.6342    1.2465    2.0121 H   0  0  0  0  0  0  0  0  0  0  0  0
    4.3226    0.7300    2.1586 H   0  0  0  0  0  0  0  0  0  0  0  0
    3.0085   -0.3535    2.6604 H   0  0  0  0  0  0  0  0  0  0  0  0
    3.5383    0.6065   -0.2002 H   0  0  0  0  0  0  0  0  0  0  0  0
    2.2171   -0.4624    0.2905 H   0  0  0  0  0  0  0  0  0  0  0  0
    3.9195   -2.1360    1.1037 H   0  0  0  0  0  0  0  0  0  0  0  0
    5.2073   -1.1031    0.5335 H   0  0  0  0  0  0  0  0  0  0  0  0
    4.3859   -1.2876   -1.8185 H   0  0  0  0  0  0  0  0  0  0  0  0
    2.9858   -2.1987   -1.2918 H   0  0  0  0  0  0  0  0  0  0  0  0
    6.4562   -2.0023   -1.2710 H   0  0  0  0  0  0  0  0  0  0  0  0
    6.7542   -3.6609    0.5202 H   0  0  0  0  0  0  0  0  0  0  0  0
    8.0908   -5.4503   -1.5069 H   0  0  0  0  0  0  0  0  0  0  0  0
    5.7740   -5.6403   -2.2721 H   0  0  0  0  0  0  0  0  0  0  0  0
    3.7902   -5.8974    1.3210 H   0  0  0  0  0  0  0  0  0  0  0  0
    5.0647   -7.0497    0.9883 H   0  0  0  0  0  0  0  0  0  0  0  0
    2.5692   -6.8137   -0.8343 H   0  0  0  0  0  0  0  0  0  0  0  0
    4.2725   -8.9081    1.8220 H   0  0  0  0  0  0  0  0  0  0  0  0
    4.3292  -10.2026    0.6131 H   0  0  0  0  0  0  0  0  0  0  0  0
    2.9505  -10.0580    1.7266 H   0  0  0  0  0  0  0  0  0  0  0  0
    1.3898   -8.6813   -1.3875 H   0  0  0  0  0  0  0  0  0  0  0  0
    1.0575   -9.6548    0.0526 H   0  0  0  0  0  0  0  0  0  0  0  0
    2.2387  -10.2140   -1.1537 H   0  0  0  0  0  0  0  0  0  0  0  0
    5.2716   -7.9768   -1.8439 H   0  0  0  0  0  0  0  0  0  0  0  0
    6.3386   -8.0262   -0.4557 H   0  0  0  0  0  0  0  0  0  0  0  0
    8.7087   -8.2899   -0.7031 H   0  0  0  0  0  0  0  0  0  0  0  0
   10.6364   -8.7599   -2.1605 H   0  0  0  0  0  0  0  0  0  0  0  0
   10.3907   -8.6583   -4.6276 H   0  0  0  0  0  0  0  0  0  0  0  0
    8.1997   -8.0794   -5.6327 H   0  0  0  0  0  0  0  0  0  0  0  0
    6.2552   -7.5901   -4.1884 H   0  0  0  0  0  0  0  0  0  0  0  0
    7.0671   -5.8295    1.1098 H   0  0  0  0  0  0  0  0  0  0  0  0
    9.0079   -3.8217    0.0875 H   0  0  0  0  0  0  0  0  0  0  0  0
    7.7397   -3.1338   -3.0656 H   0  0  0  0  0  0  0  0  0  0  0  0
    6.4236   -4.2161   -3.3819 H   0  0  0  0  0  0  0  0  0  0  0  0
    7.7028   -0.8620   -3.9063 H   0  0  0  0  0  0  0  0  0  0  0  0
    6.6612    0.7583   -5.4577 H   0  0  0  0  0  0  0  0  0  0  0  0
    4.3880    0.3434   -6.3603 H   0  0  0  0  0  0  0  0  0  0  0  0
    3.1549   -1.7079   -5.7132 H   0  0  0  0  0  0  0  0  0  0  0  0
    4.1792   -3.3405   -4.1661 H   0  0  0  0  0  0  0  0  0  0  0  0
  1  2  1  0  0  0  0
  1 34  1  0  0  0  0
  1 35  1  0  0  0  0
  1 36  1  0  0  0  0
  2  3  1  0  0  0  0
  2 37  1  0  0  0  0
  2 38  1  0  0  0  0
  3  4  1  0  0  0  0
  3 39  1  0  0  0  0
  3 40  1  0  0  0  0
  4  5  1  0  0  0  0
  4 41  1  0  0  0  0
  4 42  1  0  0  0  0
  5  6  1  0  0  0  0
  5 11  1  0  0  0  0
  6  7  1  0  0  0  0
  6 27  1  0  0  0  0
  6 43  1  1  0  0  0
  7  8  1  0  0  0  0
  7 26  1  0  0  0  0
  7 44  1  1  0  0  0
  8  9  1  0  0  0  0
  8 25  1  0  0  0  0
  8 45  1  6  0  0  0
  9 10  1  0  0  0  0
  9 18  1  0  0  0  0
  9 46  1  6  0  0  0
 10 11  1  0  0  0  0
 10 13  1  0  0  0  0
 11 12  2  0  0  0  0
 13 14  1  0  0  0  0
 13 47  1  0  0  0  0
 13 48  1  0  0  0  0
 14 15  2  0  0  0  0
 14 49  1  0  0  0  0
 15 16  1  0  0  0  0
 15 17  1  0  0  0  0
 16 50  1  0  0  0  0
 16 51  1  0  0  0  0
 16 52  1  0  0  0  0
 17 53  1  0  0  0  0
 17 54  1  0  0  0  0
 17 55  1  0  0  0  0
 18 19  1  0  0  0  0
 18 56  1  0  0  0  0
 18 57  1  0  0  0  0
 19 20  2  0  0  0  0
 19 24  1  0  0  0  0
 20 21  1  0  0  0  0
 20 58  1  0  0  0  0
 21 22  2  0  0  0  0
 21 59  1  0  0  0  0
 22 23  1  0  0  0  0
 22 60  1  0  0  0  0
 23 24  2  0  0  0  0
 23 61  1  0  0  0  0
 24 62  1  0  0  0  0
 25 63  1  0  0  0  0
 26 64  1  0  0  0  0
 27 28  1  0  0  0  0
 27 65  1  0  0  0  0
 27 66  1  0  0  0  0
 28 29  2  0  0  0  0
 28 33  1  0  0  0  0
 29 30  1  0  0  0  0
 29 67  1  0  0  0  0
 30 31  2  0  0  0  0
 30 68  1  0  0  0  0
 31 32  1  0  0  0  0
 31 69  1  0  0  0  0
 32 33  2  0  0  0  0
 32 70  1  0  0  0  0
 33 71  1  0  0  0  0
M  END
