
 OpenBabel10072620003D

117122  0  0  1  0  0  0  0  0999 V2000
   -0.4658    5.7876    6.8899 C   0  0  0  0  0  0  0  0  0  0  0  0
    0.1756    4.5151    7.3678 C   0  0  0  0  0  0  0  0  0  0  0  0
    1.2021    3.9037    6.7454 C   0  0  0  0  0  0  0  0  0  0  0  0
    1.9454    4.3410    5.5513 C   0  0  0  0  0  0  0  0  0  0  0  0
    3.4565    4.4152    5.6446 C   0  0  0  0  0  0  0  0  0  0  0  0
    2.6539    5.6800    5.5573 C   0  0  0  0  0  0  0  0  0  0  0  0
    1.3267    3.8581    3.8733 S   0  0  0  0  0  0  0  0  0  0  0  0
    0.0695    4.5595    3.6908 O   0  0  0  0  0  0  0  0  0  0  0  0
    2.4007    4.0513    2.9209 O   0  0  0  0  0  0  0  0  0  0  0  0
    0.9574    2.2425    3.8633 N   0  0  0  0  0  0  0  0  0  0  0  0
    1.8110    1.2470    4.3375 C   0  0  0  0  0  0  0  0  0  0  0  0
    2.7416    1.4567    5.1010 O   0  0  0  0  0  0  0  0  0  0  0  0
    1.4993   -0.1668    3.8679 C   0  0  2  0  0  0  0  0  0  0  0  0
    2.6473   -1.1723    3.9246 C   0  0  0  0  0  0  0  0  0  0  0  0
    2.1700   -0.6897    2.5905 C   0  0  2  0  0  0  0  0  0  0  0  0
    3.0394    0.1754    1.7897 C   0  0  0  0  0  0  0  0  0  0  0  0
    2.6340    0.9101    0.7461 C   0  0  0  0  0  0  0  0  0  0  0  0
    0.1680   -0.6744    4.1519 N   0  0  0  0  0  0  0  0  0  0  0  0
   -0.9382   -0.2964    3.4193 C   0  0  0  0  0  0  0  0  0  0  0  0
   -0.9469    0.7068    2.7060 O   0  0  0  0  0  0  0  0  0  0  0  0
   -2.1243   -1.2661    3.5444 C   0  0  2  0  0  0  0  0  0  0  0  0
   -2.6586   -1.5591    2.1356 C   0  0  0  0  0  0  0  0  0  0  0  0
   -4.0653   -2.0663    2.3986 C   0  0  2  0  0  0  0  0  0  0  0  0
   -4.5222   -1.1705    3.5577 C   0  0  0  0  0  0  0  0  0  0  0  0
   -3.3008   -0.7649    4.2550 N   0  0  0  0  0  0  0  0  0  0  0  0
   -3.2361   -0.4389    5.5981 C   0  0  0  0  0  0  0  0  0  0  0  0
   -2.1608   -0.4999    6.2064 O   0  0  0  0  0  0  0  0  0  0  0  0
   -4.5441    0.0383    6.3173 C   0  0  2  0  0  0  0  0  0  0  0  0
   -4.7170    1.5874    6.3922 C   0  0  0  0  0  0  0  0  0  0  0  0
   -3.5703    2.2684    7.1622 C   0  0  0  0  0  0  0  0  0  0  0  0
   -4.7922    2.1721    4.9665 C   0  0  0  0  0  0  0  0  0  0  0  0
   -6.0436    1.9355    7.1168 C   0  0  0  0  0  0  0  0  0  0  0  0
   -4.5170   -0.5917    7.6339 N   0  0  0  0  0  0  0  0  0  0  0  0
   -5.2116   -1.7416    7.8669 C   0  0  0  0  0  0  0  0  0  0  0  0
   -6.1278   -2.1504    7.1739 O   0  0  0  0  0  0  0  0  0  0  0  0
   -4.6878   -2.3617    8.9440 O   0  0  0  0  0  0  0  0  0  0  0  0
   -5.2095   -3.6356    9.4037 C   0  0  0  0  0  0  0  0  0  0  0  0
   -5.4100   -4.6620    8.2784 C   0  0  0  0  0  0  0  0  0  0  0  0
   -4.1199   -4.1748   10.3375 C   0  0  0  0  0  0  0  0  0  0  0  0
   -6.4920   -3.4031   10.2044 C   0  0  0  0  0  0  0  0  0  0  0  0
   -4.0193   -3.4139    2.8739 O   0  0  0  0  0  0  0  0  0  0  0  0
   -3.9424   -4.4435    1.9700 C   0  0  0  0  0  0  0  0  0  0  0  0
   -3.8726   -4.2797    0.5872 C   0  0  0  0  0  0  0  0  0  0  0  0
   -3.7973   -5.4107   -0.2179 C   0  0  0  0  0  0  0  0  0  0  0  0
   -3.8014   -6.6600    0.3040 N   0  0  0  0  0  0  0  0  0  0  0  0
   -3.8659   -6.8230    1.6297 C   0  0  0  0  0  0  0  0  0  0  0  0
   -3.9246   -5.7426    2.5241 C   0  0  0  0  0  0  0  0  0  0  0  0
   -3.9625   -6.0096    3.9130 C   0  0  0  0  0  0  0  0  0  0  0  0
   -3.9550   -7.3203    4.3982 C   0  0  0  0  0  0  0  0  0  0  0  0
   -3.9216   -8.3816    3.4995 C   0  0  0  0  0  0  0  0  0  0  0  0
   -3.8697   -8.1149    2.1286 C   0  0  0  0  0  0  0  0  0  0  0  0
   -3.9118   -9.7108    3.8198 O   0  0  0  0  0  0  0  0  0  0  0  0
   -4.0481  -10.0416    5.1947 C   0  0  0  0  0  0  0  0  0  0  0  0
   -3.6553   -5.3580   -1.6870 C   0  0  0  0  0  0  0  0  0  0  0  0
   -2.8860   -6.3358   -2.3485 C   0  0  0  0  0  0  0  0  0  0  0  0
   -2.7115   -6.3186   -3.7328 C   0  0  0  0  0  0  0  0  0  0  0  0
   -3.3128   -5.3217   -4.4926 C   0  0  0  0  0  0  0  0  0  0  0  0
   -4.0950   -4.3514   -3.8698 C   0  0  0  0  0  0  0  0  0  0  0  0
   -4.2660   -4.3699   -2.4800 C   0  0  0  0  0  0  0  0  0  0  0  0
   -0.4047    3.9672    8.6396 C   0  0  0  0  0  0  0  0  0  0  0  0
   -0.0601    6.1453    5.9405 H   0  0  0  0  0  0  0  0  0  0  0  0
   -0.3299    6.5827    7.6319 H   0  0  0  0  0  0  0  0  0  0  0  0
   -1.5378    5.6216    6.7419 H   0  0  0  0  0  0  0  0  0  0  0  0
    1.5650    2.9668    7.1672 H   0  0  0  0  0  0  0  0  0  0  0  0
    4.0579    4.1315    4.7877 H   0  0  0  0  0  0  0  0  0  0  0  0
    3.9268    4.1743    6.5918 H   0  0  0  0  0  0  0  0  0  0  0  0
    2.7102    6.2535    4.6376 H   0  0  0  0  0  0  0  0  0  0  0  0
    2.5841    6.2948    6.4482 H   0  0  0  0  0  0  0  0  0  0  0  0
    0.2360    1.9769    3.1871 H   0  0  0  0  0  0  0  0  0  0  0  0
    2.4346   -2.2001    4.1936 H   0  0  0  0  0  0  0  0  0  0  0  0
    3.6135   -0.8357    4.2876 H   0  0  0  0  0  0  0  0  0  0  0  0
    1.6148   -1.4105    1.9939 H   0  0  0  0  0  0  0  0  0  0  0  0
    4.0943    0.2182    2.0659 H   0  0  0  0  0  0  0  0  0  0  0  0
    1.5974    0.9199    0.4197 H   0  0  0  0  0  0  0  0  0  0  0  0
    3.3393    1.5289    0.2003 H   0  0  0  0  0  0  0  0  0  0  0  0
    0.0304   -1.2565    4.9729 H   0  0  0  0  0  0  0  0  0  0  0  0
   -1.7996   -2.1972    4.0244 H   0  0  0  0  0  0  0  0  0  0  0  0
   -2.0154   -2.2733    1.6170 H   0  0  0  0  0  0  0  0  0  0  0  0
   -2.7154   -0.6486    1.5288 H   0  0  0  0  0  0  0  0  0  0  0  0
   -4.7570   -1.9594    1.5570 H   0  0  0  0  0  0  0  0  0  0  0  0
   -5.1970   -1.7074    4.2298 H   0  0  0  0  0  0  0  0  0  0  0  0
   -4.9953   -0.2593    3.1855 H   0  0  0  0  0  0  0  0  0  0  0  0
   -5.4132   -0.3573    5.7887 H   0  0  0  0  0  0  0  0  0  0  0  0
   -3.7211    3.3544    7.2132 H   0  0  0  0  0  0  0  0  0  0  0  0
   -2.5984    2.0982    6.6868 H   0  0  0  0  0  0  0  0  0  0  0  0
   -3.5159    1.9038    8.1947 H   0  0  0  0  0  0  0  0  0  0  0  0
   -4.9712    3.2530    4.9830 H   0  0  0  0  0  0  0  0  0  0  0  0
   -5.6131    1.7192    4.3978 H   0  0  0  0  0  0  0  0  0  0  0  0
   -3.8620    2.0029    4.4138 H   0  0  0  0  0  0  0  0  0  0  0  0
   -6.1945    3.0230    7.1548 H   0  0  0  0  0  0  0  0  0  0  0  0
   -6.0448    1.5723    8.1521 H   0  0  0  0  0  0  0  0  0  0  0  0
   -6.9084    1.4945    6.6047 H   0  0  0  0  0  0  0  0  0  0  0  0
   -3.6747   -0.4903    8.1867 H   0  0  0  0  0  0  0  0  0  0  0  0
   -4.5503   -4.6700    7.5984 H   0  0  0  0  0  0  0  0  0  0  0  0
   -6.3002   -4.4458    7.6793 H   0  0  0  0  0  0  0  0  0  0  0  0
   -5.5433   -5.6711    8.6838 H   0  0  0  0  0  0  0  0  0  0  0  0
   -3.1880   -4.3219    9.7793 H   0  0  0  0  0  0  0  0  0  0  0  0
   -4.4093   -5.1294   10.7872 H   0  0  0  0  0  0  0  0  0  0  0  0
   -3.8984   -3.4609   11.1388 H   0  0  0  0  0  0  0  0  0  0  0  0
   -7.2893   -2.9823    9.5850 H   0  0  0  0  0  0  0  0  0  0  0  0
   -6.3253   -2.6882   11.0175 H   0  0  0  0  0  0  0  0  0  0  0  0
   -6.8646   -4.3310   10.6464 H   0  0  0  0  0  0  0  0  0  0  0  0
   -3.8395   -3.3007    0.1267 H   0  0  0  0  0  0  0  0  0  0  0  0
   -4.0055   -5.1880    4.6261 H   0  0  0  0  0  0  0  0  0  0  0  0
   -3.9679   -7.4725    5.4734 H   0  0  0  0  0  0  0  0  0  0  0  0
   -3.8270   -8.9403    1.4203 H   0  0  0  0  0  0  0  0  0  0  0  0
   -4.1238  -11.1304    5.2738 H   0  0  0  0  0  0  0  0  0  0  0  0
   -4.9638   -9.6140    5.6127 H   0  0  0  0  0  0  0  0  0  0  0  0
   -3.1686   -9.7201    5.7613 H   0  0  0  0  0  0  0  0  0  0  0  0
   -2.4075   -7.1249   -1.7684 H   0  0  0  0  0  0  0  0  0  0  0  0
   -2.1103   -7.0886   -4.2087 H   0  0  0  0  0  0  0  0  0  0  0  0
   -3.1723   -5.3071   -5.5698 H   0  0  0  0  0  0  0  0  0  0  0  0
   -4.5816   -3.5858   -4.4694 H   0  0  0  0  0  0  0  0  0  0  0  0
   -4.9046   -3.6120   -2.0325 H   0  0  0  0  0  0  0  0  0  0  0  0
   -1.4611    3.7320    8.5014 H   0  0  0  0  0  0  0  0  0  0  0  0
   -0.3178    4.7100    9.4384 H   0  0  0  0  0  0  0  0  0  0  0  0
    0.1011    3.0573    8.9734 H   0  0  0  0  0  0  0  0  0  0  0  0
  1  2  1  0  0  0  0
  1 61  1  0  0  0  0
  1 62  1  0  0  0  0
  1 63  1  0  0  0  0
  2  3  2  0  0  0  0
  2 60  1  0  0  0  0
  3  4  1  0  0  0  0
  3 64  1  0  0  0  0
  4  5  1  0  0  0  0
  4  6  1  0  0  0  0
  4  7  1  0  0  0  0
  5  6  1  0  0  0  0
  5 65  1  0  0  0  0
  5 66  1  0  0  0  0
  6 67  1  0  0  0  0
  6 68  1  0  0  0  0
  7  8  2  0  0  0  0
  7  9  2  0  0  0  0
  7 10  1  0  0  0  0
 10 11  1  0  0  0  0
 10 69  1  0  0  0  0
 11 12  2  0  0  0  0
 13 11  1  1  0  0  0
 13 14  1  0  0  0  0
 13 15  1  0  0  0  0
 13 18  1  0  0  0  0
 14 15  1  0  0  0  0
 14 70  1  0  0  0  0
 14 71  1  0  0  0  0
 15 16  1  0  0  0  0
 15 72  1  6  0  0  0
 16 17  2  0  0  0  0
 16 73  1  0  0  0  0
 17 74  1  0  0  0  0
 17 75  1  0  0  0  0
 18 19  1  0  0  0  0
 18 76  1  0  0  0  0
 19 20  2  0  0  0  0
 19 21  1  0  0  0  0
 21 22  1  0  0  0  0
 21 25  1  0  0  0  0
 21 77  1  1  0  0  0
 22 23  1  0  0  0  0
 22 78  1  0  0  0  0
 22 79  1  0  0  0  0
 23 24  1  0  0  0  0
 23 41  1  0  0  0  0
 23 80  1  6  0  0  0
 24 25  1  0  0  0  0
 24 81  1  0  0  0  0
 24 82  1  0  0  0  0
 25 26  1  0  0  0  0
 26 27  2  0  0  0  0
 28 33  1  0  0  0  0
 28 29  1  0  0  0  0
 28 26  1  0  0  0  0
 28 83  1  6  0  0  0
 29 30  1  0  0  0  0
 29 31  1  0  0  0  0
 29 32  1  0  0  0  0
 30 84  1  0  0  0  0
 30 85  1  0  0  0  0
 30 86  1  0  0  0  0
 31 87  1  0  0  0  0
 31 88  1  0  0  0  0
 31 89  1  0  0  0  0
 32 90  1  0  0  0  0
 32 91  1  0  0  0  0
 32 92  1  0  0  0  0
 33 34  1  0  0  0  0
 33 93  1  0  0  0  0
 34 35  2  0  0  0  0
 34 36  1  0  0  0  0
 36 37  1  0  0  0  0
 37 38  1  0  0  0  0
 37 39  1  0  0  0  0
 37 40  1  0  0  0  0
 38 94  1  0  0  0  0
 38 95  1  0  0  0  0
 38 96  1  0  0  0  0
 39 97  1  0  0  0  0
 39 98  1  0  0  0  0
 39 99  1  0  0  0  0
 40100  1  0  0  0  0
 40101  1  0  0  0  0
 40102  1  0  0  0  0
 41 42  1  0  0  0  0
 42 43  2  0  0  0  0
 42 47  1  0  0  0  0
 43 44  1  0  0  0  0
 43103  1  0  0  0  0
 44 45  2  0  0  0  0
 44 54  1  0  0  0  0
 45 46  1  0  0  0  0
 46 47  2  0  0  0  0
 46 51  1  0  0  0  0
 47 48  1  0  0  0  0
 48 49  2  0  0  0  0
 48104  1  0  0  0  0
 49 50  1  0  0  0  0
 49105  1  0  0  0  0
 50 51  2  0  0  0  0
 50 52  1  0  0  0  0
 51106  1  0  0  0  0
 52 53  1  0  0  0  0
 53107  1  0  0  0  0
 53108  1  0  0  0  0
 53109  1  0  0  0  0
 54 55  2  0  0  0  0
 54 59  1  0  0  0  0
 55 56  1  0  0  0  0
 55110  1  0  0  0  0
 56 57  2  0  0  0  0
 56111  1  0  0  0  0
 57 58  1  0  0  0  0
 57112  1  0  0  0  0
 58 59  2  0  0  0  0
 58113  1  0  0  0  0
 59114  1  0  0  0  0
 60115  1  0  0  0  0
 60116  1  0  0  0  0
 60117  1  0  0  0  0
M  END
