
 OpenBabel10072616403D

137142  0  0  1  0  0  0  0  0999 V2000
    9.9491    9.0253    6.8170 C   0  0  0  0  0  0  0  0  0  0  0  0
   10.2859    9.7908    5.5375 C   0  0  0  0  0  0  0  0  0  0  0  0
   11.1591    8.9576    4.6024 C   0  0  0  0  0  0  0  0  0  0  0  0
    9.0561   10.3100    4.8114 C   0  0  0  0  0  0  0  0  0  0  0  0
    9.0665   11.6074    4.3004 C   0  0  0  0  0  0  0  0  0  0  0  0
    7.9685   12.1638    3.6051 C   0  0  0  0  0  0  0  0  0  0  0  0
    6.8057   11.3592    3.4066 C   0  0  0  0  0  0  0  0  0  0  0  0
    6.7325   10.0679    4.0128 C   0  0  0  0  0  0  0  0  0  0  0  0
    7.8915    9.5535    4.6524 C   0  0  0  0  0  0  0  0  0  0  0  0
    5.4652    9.2079    4.0660 C   0  0  0  0  0  0  0  0  0  0  0  0
    5.4570    8.1537    2.9571 C   0  0  0  0  0  0  0  0  0  0  0  0
    5.2186    8.5260    5.4278 C   0  0  0  0  0  0  0  0  0  0  0  0
    5.4757   11.9934    2.3630 S   0  0  0  0  0  0  0  0  0  0  0  0
    4.4925   10.9858    2.0316 O   0  0  0  0  0  0  0  0  0  0  0  0
    5.0337   13.2391    2.9513 O   0  0  0  0  0  0  0  0  0  0  0  0
    6.2167   12.3755    0.9195 N   0  0  0  0  0  0  0  0  0  0  0  0
    6.7583   11.4270    0.0440 C   0  0  0  0  0  0  0  0  0  0  0  0
    6.9565   10.2563    0.3361 O   0  0  0  0  0  0  0  0  0  0  0  0
    6.9997   11.9087   -1.3772 C   0  0  1  0  0  0  0  0  0  0  0  0
    7.8282   13.1693   -1.5863 C   0  0  0  0  0  0  0  0  0  0  0  0
    8.4134   11.8451   -1.9702 C   0  0  1  0  0  0  0  0  0  0  0  0
    9.5816   11.3761   -1.2142 C   0  0  0  0  0  0  0  0  0  0  0  0
   10.7498   12.0256   -1.1131 C   0  0  0  0  0  0  0  0  0  0  0  0
    5.8811   11.6315   -2.2813 N   0  0  0  0  0  0  0  0  0  0  0  0
    4.8115   12.4952   -2.3956 C   0  0  0  0  0  0  0  0  0  0  0  0
    4.9006   13.6706   -2.0319 O   0  0  0  0  0  0  0  0  0  0  0  0
    3.5342   11.9535   -3.1081 C   0  0  2  0  0  0  0  0  0  0  0  0
    2.2988   12.6117   -2.4647 C   0  0  0  0  0  0  0  0  0  0  0  0
    1.3327   11.4845   -2.0973 C   0  0  2  0  0  0  0  0  0  0  0  0
    2.1833   10.2116   -2.1378 C   0  0  0  0  0  0  0  0  0  0  0  0
    3.3038   10.5035   -3.0291 N   0  0  0  0  0  0  0  0  0  0  0  0
    3.8594    9.6609   -3.9755 C   0  0  0  0  0  0  0  0  0  0  0  0
    4.6224   10.1280   -4.8321 O   0  0  0  0  0  0  0  0  0  0  0  0
    3.4835    8.1485   -3.9882 C   0  0  2  0  0  0  0  0  0  0  0  0
    4.6948    7.1960   -3.7372 C   0  0  0  0  0  0  0  0  0  0  0  0
    5.7969    7.2899   -4.8075 C   0  0  0  0  0  0  0  0  0  0  0  0
    5.3140    7.5111   -2.3632 C   0  0  0  0  0  0  0  0  0  0  0  0
    4.2019    5.7314   -3.7042 C   0  0  0  0  0  0  0  0  0  0  0  0
    2.8754    7.9133   -5.2891 N   0  0  0  0  0  0  0  0  0  0  0  0
    1.5646    7.6181   -5.4645 C   0  0  0  0  0  0  0  0  0  0  0  0
    0.7818    7.3590   -4.5658 O   0  0  0  0  0  0  0  0  0  0  0  0
    1.3082    7.6670   -6.7869 O   0  0  0  0  0  0  0  0  0  0  0  0
   -0.0045    7.3590   -7.3091 C   0  0  0  0  0  0  0  0  0  0  0  0
   -1.0924    8.2568   -6.7057 C   0  0  0  0  0  0  0  0  0  0  0  0
    0.1109    7.6747   -8.8073 C   0  0  0  0  0  0  0  0  0  0  0  0
   -0.3239    5.8723   -7.1246 C   0  0  0  0  0  0  0  0  0  0  0  0
    0.2558   11.3956   -3.0556 O   0  0  0  0  0  0  0  0  0  0  0  0
   -0.9055   11.8948   -2.5004 C   0  0  0  0  0  0  0  0  0  0  0  0
   -1.1210   13.2713   -2.5483 C   0  0  0  0  0  0  0  0  0  0  0  0
   -2.2411   13.8011   -1.9265 C   0  0  0  0  0  0  0  0  0  0  0  0
   -3.1187   12.9939   -1.2770 N   0  0  0  0  0  0  0  0  0  0  0  0
   -2.9297   11.6647   -1.2581 C   0  0  0  0  0  0  0  0  0  0  0  0
   -1.8397   11.0400   -1.8844 C   0  0  0  0  0  0  0  0  0  0  0  0
   -1.7396    9.6295   -1.8533 C   0  0  0  0  0  0  0  0  0  0  0  0
   -2.6939    8.8666   -1.1746 C   0  0  0  0  0  0  0  0  0  0  0  0
   -3.7208    9.5053   -0.4901 C   0  0  0  0  0  0  0  0  0  0  0  0
   -3.8477   10.8893   -0.5649 C   0  0  0  0  0  0  0  0  0  0  0  0
   -4.6726    8.8499    0.2405 O   0  0  0  0  0  0  0  0  0  0  0  0
   -4.1264    7.8580    1.1093 C   0  0  0  0  0  0  0  0  0  0  0  0
   -2.5737   15.2485   -1.9035 C   0  0  0  0  0  0  0  0  0  0  0  0
   -3.8721   15.6760   -1.5594 C   0  0  0  0  0  0  0  0  0  0  0  0
   -4.2199   17.0279   -1.4842 C   0  0  0  0  0  0  0  0  0  0  0  0
   -3.2677   17.9991   -1.7613 C   0  0  0  0  0  0  0  0  0  0  0  0
   -1.9843   17.6169   -2.1383 C   0  0  0  0  0  0  0  0  0  0  0  0
   -1.6431   16.2593   -2.2049 C   0  0  0  0  0  0  0  0  0  0  0  0
    8.0920   13.6459    3.2482 C   0  0  0  0  0  0  0  0  0  0  0  0
    8.0533   14.4969    4.5262 C   0  0  0  0  0  0  0  0  0  0  0  0
    9.3403   13.9779    2.4203 C   0  0  0  0  0  0  0  0  0  0  0  0
   10.8642    8.7464    7.3479 H   0  0  0  0  0  0  0  0  0  0  0  0
    9.3908    8.1047    6.6251 H   0  0  0  0  0  0  0  0  0  0  0  0
    9.3499    9.6479    7.4896 H   0  0  0  0  0  0  0  0  0  0  0  0
   10.8832   10.6537    5.8617 H   0  0  0  0  0  0  0  0  0  0  0  0
   10.6157    8.0998    4.1951 H   0  0  0  0  0  0  0  0  0  0  0  0
   12.0437    8.5823    5.1267 H   0  0  0  0  0  0  0  0  0  0  0  0
   11.5067    9.5620    3.7579 H   0  0  0  0  0  0  0  0  0  0  0  0
    9.9564   12.2144    4.4720 H   0  0  0  0  0  0  0  0  0  0  0  0
    7.8771    8.5394    5.0533 H   0  0  0  0  0  0  0  0  0  0  0  0
    4.5967    9.8610    3.9659 H   0  0  0  0  0  0  0  0  0  0  0  0
    6.2823    7.4426    3.0689 H   0  0  0  0  0  0  0  0  0  0  0  0
    5.5519    8.6055    1.9668 H   0  0  0  0  0  0  0  0  0  0  0  0
    4.5232    7.5819    2.9707 H   0  0  0  0  0  0  0  0  0  0  0  0
    5.9231    7.7111    5.6243 H   0  0  0  0  0  0  0  0  0  0  0  0
    4.2111    8.0917    5.4557 H   0  0  0  0  0  0  0  0  0  0  0  0
    5.2927    9.2473    6.2496 H   0  0  0  0  0  0  0  0  0  0  0  0
    6.0054   13.3140    0.5942 H   0  0  0  0  0  0  0  0  0  0  0  0
    8.2193   13.6767   -0.7111 H   0  0  0  0  0  0  0  0  0  0  0  0
    7.5412   13.8435   -2.3867 H   0  0  0  0  0  0  0  0  0  0  0  0
    8.4822   11.6361   -3.0350 H   0  0  0  0  0  0  0  0  0  0  0  0
    9.4949   10.4075   -0.7230 H   0  0  0  0  0  0  0  0  0  0  0  0
   10.9023   12.9921   -1.5816 H   0  0  0  0  0  0  0  0  0  0  0  0
   11.5849   11.6062   -0.5635 H   0  0  0  0  0  0  0  0  0  0  0  0
    5.7645   10.6762   -2.6029 H   0  0  0  0  0  0  0  0  0  0  0  0
    3.6042   12.2577   -4.1613 H   0  0  0  0  0  0  0  0  0  0  0  0
    1.8605   13.3374   -3.1590 H   0  0  0  0  0  0  0  0  0  0  0  0
    2.5604   13.1572   -1.5501 H   0  0  0  0  0  0  0  0  0  0  0  0
    0.9395   11.6067   -1.0802 H   0  0  0  0  0  0  0  0  0  0  0  0
    1.5994    9.3510   -2.4642 H   0  0  0  0  0  0  0  0  0  0  0  0
    2.6275   10.0167   -1.1548 H   0  0  0  0  0  0  0  0  0  0  0  0
    2.7462    7.9351   -3.2106 H   0  0  0  0  0  0  0  0  0  0  0  0
    6.5996    6.5723   -4.6026 H   0  0  0  0  0  0  0  0  0  0  0  0
    6.2656    8.2761   -4.8396 H   0  0  0  0  0  0  0  0  0  0  0  0
    5.4166    7.0657   -5.8083 H   0  0  0  0  0  0  0  0  0  0  0  0
    6.1097    6.8010   -2.1112 H   0  0  0  0  0  0  0  0  0  0  0  0
    4.5584    7.4568   -1.5729 H   0  0  0  0  0  0  0  0  0  0  0  0
    5.7552    8.5110   -2.3360 H   0  0  0  0  0  0  0  0  0  0  0  0
    5.0114    5.0462   -3.4271 H   0  0  0  0  0  0  0  0  0  0  0  0
    3.8218    5.4046   -4.6777 H   0  0  0  0  0  0  0  0  0  0  0  0
    3.3990    5.6011   -2.9726 H   0  0  0  0  0  0  0  0  0  0  0  0
    3.3638    8.2250   -6.1190 H   0  0  0  0  0  0  0  0  0  0  0  0
   -0.7709    9.3053   -6.7098 H   0  0  0  0  0  0  0  0  0  0  0  0
   -1.3136    7.9941   -5.6650 H   0  0  0  0  0  0  0  0  0  0  0  0
   -2.0303    8.1747   -7.2695 H   0  0  0  0  0  0  0  0  0  0  0  0
    0.3517    8.7344   -8.9529 H   0  0  0  0  0  0  0  0  0  0  0  0
   -0.8138    7.4525   -9.3480 H   0  0  0  0  0  0  0  0  0  0  0  0
    0.9299    7.1107   -9.2693 H   0  0  0  0  0  0  0  0  0  0  0  0
   -0.3498    5.5856   -6.0684 H   0  0  0  0  0  0  0  0  0  0  0  0
    0.4433    5.2465   -7.5941 H   0  0  0  0  0  0  0  0  0  0  0  0
   -1.2939    5.6161   -7.5631 H   0  0  0  0  0  0  0  0  0  0  0  0
   -0.4127   13.9001   -3.0691 H   0  0  0  0  0  0  0  0  0  0  0  0
   -0.9253    9.1189   -2.3623 H   0  0  0  0  0  0  0  0  0  0  0  0
   -2.6215    7.7836   -1.1846 H   0  0  0  0  0  0  0  0  0  0  0  0
   -4.6630   11.3841   -0.0445 H   0  0  0  0  0  0  0  0  0  0  0  0
   -4.7665    7.8196    1.9960 H   0  0  0  0  0  0  0  0  0  0  0  0
   -3.1065    8.0898    1.4487 H   0  0  0  0  0  0  0  0  0  0  0  0
   -4.1477    6.8773    0.6211 H   0  0  0  0  0  0  0  0  0  0  0  0
   -4.6421   14.9402   -1.3380 H   0  0  0  0  0  0  0  0  0  0  0  0
   -5.2302   17.3151   -1.2017 H   0  0  0  0  0  0  0  0  0  0  0  0
   -3.5266   19.0515   -1.6949 H   0  0  0  0  0  0  0  0  0  0  0  0
   -1.2402   18.3744   -2.3733 H   0  0  0  0  0  0  0  0  0  0  0  0
   -0.6228   16.0154   -2.4830 H   0  0  0  0  0  0  0  0  0  0  0  0
    7.2543   13.9754    2.6418 H   0  0  0  0  0  0  0  0  0  0  0  0
    8.9261   14.3201    5.1650 H   0  0  0  0  0  0  0  0  0  0  0  0
    7.1587   14.2716    5.1186 H   0  0  0  0  0  0  0  0  0  0  0  0
    8.0375   15.5630    4.2755 H   0  0  0  0  0  0  0  0  0  0  0  0
   10.2718   13.8055    2.9657 H   0  0  0  0  0  0  0  0  0  0  0  0
    9.3374   15.0347    2.1342 H   0  0  0  0  0  0  0  0  0  0  0  0
    9.3782   13.3853    1.5020 H   0  0  0  0  0  0  0  0  0  0  0  0
  1  2  1  0  0  0  0
  1 69  1  0  0  0  0
  1 70  1  0  0  0  0
  1 71  1  0  0  0  0
  2  3  1  0  0  0  0
  2  4  1  0  0  0  0
  2 72  1  0  0  0  0
  3 73  1  0  0  0  0
  3 74  1  0  0  0  0
  3 75  1  0  0  0  0
  4  5  2  0  0  0  0
  4  9  1  0  0  0  0
  5  6  1  0  0  0  0
  5 76  1  0  0  0  0
  6  7  2  0  0  0  0
  6 66  1  0  0  0  0
  7  8  1  0  0  0  0
  7 13  1  0  0  0  0
  8  9  2  0  0  0  0
  8 10  1  0  0  0  0
  9 77  1  0  0  0  0
 10 11  1  0  0  0  0
 10 12  1  0  0  0  0
 10 78  1  0  0  0  0
 11 79  1  0  0  0  0
 11 80  1  0  0  0  0
 11 81  1  0  0  0  0
 12 82  1  0  0  0  0
 12 83  1  0  0  0  0
 12 84  1  0  0  0  0
 13 14  2  0  0  0  0
 13 15  2  0  0  0  0
 13 16  1  0  0  0  0
 16 17  1  0  0  0  0
 16 85  1  0  0  0  0
 17 18  2  0  0  0  0
 19 20  1  0  0  0  0
 19 21  1  0  0  0  0
 19 24  1  0  0  0  0
 19 17  1  1  0  0  0
 20 21  1  0  0  0  0
 20 86  1  0  0  0  0
 20 87  1  0  0  0  0
 21 22  1  0  0  0  0
 21 88  1  6  0  0  0
 22 23  2  0  0  0  0
 22 89  1  0  0  0  0
 23 90  1  0  0  0  0
 23 91  1  0  0  0  0
 24 25  1  0  0  0  0
 24 92  1  0  0  0  0
 25 26  2  0  0  0  0
 25 27  1  0  0  0  0
 27 28  1  0  0  0  0
 27 31  1  0  0  0  0
 27 93  1  6  0  0  0
 28 29  1  0  0  0  0
 28 94  1  0  0  0  0
 28 95  1  0  0  0  0
 29 30  1  0  0  0  0
 29 47  1  0  0  0  0
 29 96  1  1  0  0  0
 30 31  1  0  0  0  0
 30 97  1  0  0  0  0
 30 98  1  0  0  0  0
 31 32  1  0  0  0  0
 32 33  2  0  0  0  0
 34 39  1  0  0  0  0
 34 35  1  0  0  0  0
 34 32  1  0  0  0  0
 34 99  1  1  0  0  0
 35 36  1  0  0  0  0
 35 37  1  0  0  0  0
 35 38  1  0  0  0  0
 36100  1  0  0  0  0
 36101  1  0  0  0  0
 36102  1  0  0  0  0
 37103  1  0  0  0  0
 37104  1  0  0  0  0
 37105  1  0  0  0  0
 38106  1  0  0  0  0
 38107  1  0  0  0  0
 38108  1  0  0  0  0
 39 40  1  0  0  0  0
 39109  1  0  0  0  0
 40 41  2  0  0  0  0
 40 42  1  0  0  0  0
 42 43  1  0  0  0  0
 43 44  1  0  0  0  0
 43 45  1  0  0  0  0
 43 46  1  0  0  0  0
 44110  1  0  0  0  0
 44111  1  0  0  0  0
 44112  1  0  0  0  0
 45113  1  0  0  0  0
 45114  1  0  0  0  0
 45115  1  0  0  0  0
 46116  1  0  0  0  0
 46117  1  0  0  0  0
 46118  1  0  0  0  0
 47 48  1  0  0  0  0
 48 49  2  0  0  0  0
 48 53  1  0  0  0  0
 49 50  1  0  0  0  0
 49119  1  0  0  0  0
 50 51  2  0  0  0  0
 50 60  1  0  0  0  0
 51 52  1  0  0  0  0
 52 53  2  0  0  0  0
 52 57  1  0  0  0  0
 53 54  1  0  0  0  0
 54 55  2  0  0  0  0
 54120  1  0  0  0  0
 55 56  1  0  0  0  0
 55121  1  0  0  0  0
 56 57  2  0  0  0  0
 56 58  1  0  0  0  0
 57122  1  0  0  0  0
 58 59  1  0  0  0  0
 59123  1  0  0  0  0
 59124  1  0  0  0  0
 59125  1  0  0  0  0
 60 61  2  0  0  0  0
 60 65  1  0  0  0  0
 61 62  1  0  0  0  0
 61126  1  0  0  0  0
 62 63  2  0  0  0  0
 62127  1  0  0  0  0
 63 64  1  0  0  0  0
 63128  1  0  0  0  0
 64 65  2  0  0  0  0
 64129  1  0  0  0  0
 65130  1  0  0  0  0
 66 67  1  0  0  0  0
 66 68  1  0  0  0  0
 66131  1  0  0  0  0
 67132  1  0  0  0  0
 67133  1  0  0  0  0
 67134  1  0  0  0  0
 68135  1  0  0  0  0
 68136  1  0  0  0  0
 68137  1  0  0  0  0
M  END
