
 OpenBabel10072620183D

 90 93  0  0  1  0  0  0  0  0999 V2000
    8.5391    0.9429    3.9345 C   0  0  0  0  0  0  0  0  0  0  0  0
    7.8733    1.5468    2.7308 C   0  0  0  0  0  0  0  0  0  0  0  0
    7.1824    2.5601    2.7834 O   0  0  0  0  0  0  0  0  0  0  0  0
    8.1466    0.8852    1.5698 N   0  0  0  0  0  0  0  0  0  0  0  0
    7.6694    1.3373    0.2972 C   0  0  0  0  0  0  0  0  0  0  0  0
    7.8213   -0.1174   -0.7438 S   0  0  0  0  0  0  0  0  0  0  0  0
    7.3178    0.4837   -2.4272 C   0  0  0  0  0  0  0  0  0  0  0  0
    5.8924    1.0669   -2.3856 C   0  0  0  0  0  0  0  0  0  0  0  0
    8.2818    1.5895   -2.8848 C   0  0  0  0  0  0  0  0  0  0  0  0
    7.3863   -0.8091   -3.3055 C   0  0  1  0  0  0  0  0  0  0  0  0
    6.8238   -0.6645   -4.7346 C   0  0  0  0  0  0  0  0  0  0  0  0
    7.5600   -0.2475   -5.6422 O   0  0  0  0  0  0  0  0  0  0  0  0
    5.5437   -1.0737   -5.0355 N   0  0  0  0  0  0  0  0  0  0  0  0
    4.6010   -1.7212   -4.1406 C   0  0  0  0  0  0  0  0  0  0  0  0
    3.4314   -2.2047   -4.9964 C   0  0  1  0  0  0  0  0  0  0  0  0
    3.9191   -2.1088   -6.4481 C   0  0  0  0  0  0  0  0  0  0  0  0
    5.2307   -1.3358   -6.4354 C   0  0  1  0  0  0  0  0  0  0  0  0
    5.1285   -0.0435   -7.2663 C   0  0  0  0  0  0  0  0  0  0  0  0
    4.2383    0.7947   -7.1193 O   0  0  0  0  0  0  0  0  0  0  0  0
    6.1824    0.1542   -8.1417 N   0  0  0  0  0  0  0  0  0  0  0  0
    6.3579    1.4232   -8.8329 C   0  0  3  0  0  0  0  0  0  0  0  0
    5.5011    1.6916  -10.0580 C   0  0  0  0  0  0  0  0  0  0  0  0
    6.9710    1.4488  -10.2369 C   0  0  2  0  0  0  0  0  0  0  0  0
    7.3876    0.2146  -10.9131 C   0  0  0  0  0  0  0  0  0  0  0  0
    8.5103   -0.4745  -10.6722 C   0  0  0  0  0  0  0  0  0  0  0  0
    6.7066    2.5943   -7.9394 C   0  0  0  0  0  0  0  0  0  0  0  0
    7.8230    3.0944   -7.9204 O   0  0  0  0  0  0  0  0  0  0  0  0
    5.6775    3.0151   -7.1671 O   0  0  0  0  0  0  0  0  0  0  0  0
    3.1579   -3.5835   -4.7463 O   0  0  0  0  0  0  0  0  0  0  0  0
    2.2401   -3.9311   -3.7889 C   0  0  0  0  0  0  0  0  0  0  0  0
    1.8727   -3.1246   -2.7209 C   0  0  0  0  0  0  0  0  0  0  0  0
    0.9699   -3.6386   -1.8064 C   0  0  0  0  0  0  0  0  0  0  0  0
    0.4084   -4.8629   -1.8986 N   0  0  0  0  0  0  0  0  0  0  0  0
    0.7618   -5.6435   -2.9346 C   0  0  0  0  0  0  0  0  0  0  0  0
    0.1991   -6.9090   -3.0628 C   0  0  0  0  0  0  0  0  0  0  0  0
    0.5518   -7.7740   -4.1041 C   0  0  0  0  0  0  0  0  0  0  0  0
    1.4779   -7.3707   -5.0534 C   0  0  0  0  0  0  0  0  0  0  0  0
    2.0370   -6.1013   -4.9609 C   0  0  0  0  0  0  0  0  0  0  0  0
    1.6926   -5.2263   -3.9073 C   0  0  0  0  0  0  0  0  0  0  0  0
    8.7506   -1.2916   -3.5992 N   0  0  0  0  0  0  0  0  0  0  0  0
    9.0943   -2.5762   -3.2809 C   0  0  0  0  0  0  0  0  0  0  0  0
    8.7070   -3.1505   -2.2828 O   0  0  0  0  0  0  0  0  0  0  0  0
    9.8393   -3.0876   -4.2886 O   0  0  0  0  0  0  0  0  0  0  0  0
   10.2950   -4.4752   -4.3730 C   0  0  0  0  0  0  0  0  0  0  0  0
    9.9267   -5.3833   -3.1911 C   0  0  0  0  0  0  0  0  0  0  0  0
    9.6699   -5.1162   -5.6226 C   0  0  0  0  0  0  0  0  0  0  0  0
   11.8120   -4.3824   -4.5957 C   0  0  0  0  0  0  0  0  0  0  0  0
    7.9110    1.1014    4.8133 H   0  0  0  0  0  0  0  0  0  0  0  0
    9.5093    1.4245    4.0799 H   0  0  0  0  0  0  0  0  0  0  0  0
    8.6845   -0.1351    3.8097 H   0  0  0  0  0  0  0  0  0  0  0  0
    8.7439    0.0695    1.5574 H   0  0  0  0  0  0  0  0  0  0  0  0
    8.3113    2.1579   -0.0324 H   0  0  0  0  0  0  0  0  0  0  0  0
    6.6323    1.6680    0.3815 H   0  0  0  0  0  0  0  0  0  0  0  0
    5.8503    2.0392   -1.8793 H   0  0  0  0  0  0  0  0  0  0  0  0
    5.1752    0.4054   -1.8879 H   0  0  0  0  0  0  0  0  0  0  0  0
    5.5263    1.2557   -3.4010 H   0  0  0  0  0  0  0  0  0  0  0  0
    8.1363    2.5175   -2.3150 H   0  0  0  0  0  0  0  0  0  0  0  0
    8.1082    1.8474   -3.9349 H   0  0  0  0  0  0  0  0  0  0  0  0
    9.3332    1.3020   -2.7779 H   0  0  0  0  0  0  0  0  0  0  0  0
    6.8521   -1.6254   -2.8078 H   0  0  0  0  0  0  0  0  0  0  0  0
    4.2607   -0.9932   -3.4008 H   0  0  0  0  0  0  0  0  0  0  0  0
    5.0908   -2.5448   -3.6120 H   0  0  0  0  0  0  0  0  0  0  0  0
    2.5338   -1.5856   -4.8792 H   0  0  0  0  0  0  0  0  0  0  0  0
    3.1605   -1.6277   -7.0760 H   0  0  0  0  0  0  0  0  0  0  0  0
    4.0870   -3.1012   -6.8845 H   0  0  0  0  0  0  0  0  0  0  0  0
    6.0295   -1.9657   -6.8487 H   0  0  0  0  0  0  0  0  0  0  0  0
    7.0479   -0.3459   -7.9416 H   0  0  0  0  0  0  0  0  0  0  0  0
    5.1319    2.6970  -10.2246 H   0  0  0  0  0  0  0  0  0  0  0  0
    4.7990    0.9228  -10.3607 H   0  0  0  0  0  0  0  0  0  0  0  0
    7.5836    2.3126  -10.4900 H   0  0  0  0  0  0  0  0  0  0  0  0
    6.7339   -0.1466  -11.7057 H   0  0  0  0  0  0  0  0  0  0  0  0
    9.2234   -0.1549   -9.9188 H   0  0  0  0  0  0  0  0  0  0  0  0
    8.7457   -1.3699  -11.2391 H   0  0  0  0  0  0  0  0  0  0  0  0
    4.9088    2.3979   -7.2424 H   0  0  0  0  0  0  0  0  0  0  0  0
    2.2698   -2.1326   -2.5621 H   0  0  0  0  0  0  0  0  0  0  0  0
    0.6672   -3.0583   -0.9386 H   0  0  0  0  0  0  0  0  0  0  0  0
   -0.5360   -7.2313   -2.3297 H   0  0  0  0  0  0  0  0  0  0  0  0
    0.1014   -8.7605   -4.1670 H   0  0  0  0  0  0  0  0  0  0  0  0
    1.7667   -8.0331   -5.8644 H   0  0  0  0  0  0  0  0  0  0  0  0
    2.7494   -5.7886   -5.7201 H   0  0  0  0  0  0  0  0  0  0  0  0
    9.1204   -0.9915   -4.4983 H   0  0  0  0  0  0  0  0  0  0  0  0
    8.8428   -5.3742   -3.0207 H   0  0  0  0  0  0  0  0  0  0  0  0
   10.4177   -5.0802   -2.2620 H   0  0  0  0  0  0  0  0  0  0  0  0
   10.1889   -6.4286   -3.3930 H   0  0  0  0  0  0  0  0  0  0  0  0
    8.5896   -5.2417   -5.4964 H   0  0  0  0  0  0  0  0  0  0  0  0
   10.1029   -6.1074   -5.8107 H   0  0  0  0  0  0  0  0  0  0  0  0
    9.8200   -4.5021   -6.5149 H   0  0  0  0  0  0  0  0  0  0  0  0
   12.2844   -3.7249   -3.8577 H   0  0  0  0  0  0  0  0  0  0  0  0
   12.0193   -3.9275   -5.5741 H   0  0  0  0  0  0  0  0  0  0  0  0
   12.3062   -5.3591   -4.5755 H   0  0  0  0  0  0  0  0  0  0  0  0
  1  2  1  0  0  0  0
  1 48  1  0  0  0  0
  1 49  1  0  0  0  0
  1 50  1  0  0  0  0
  2  3  2  0  0  0  0
  2  4  1  0  0  0  0
  4  5  1  0  0  0  0
  4 51  1  0  0  0  0
  5  6  1  0  0  0  0
  5 52  1  0  0  0  0
  5 53  1  0  0  0  0
  6  7  1  0  0  0  0
  7  8  1  0  0  0  0
  7  9  1  0  0  0  0
  7 10  1  0  0  0  0
  8 54  1  0  0  0  0
  8 55  1  0  0  0  0
  8 56  1  0  0  0  0
  9 57  1  0  0  0  0
  9 58  1  0  0  0  0
  9 59  1  0  0  0  0
 10 11  1  0  0  0  0
 10 40  1  0  0  0  0
 10 60  1  1  0  0  0
 11 12  2  0  0  0  0
 11 13  1  0  0  0  0
 13 14  1  0  0  0  0
 13 17  1  0  0  0  0
 14 15  1  0  0  0  0
 14 61  1  0  0  0  0
 14 62  1  0  0  0  0
 15 16  1  0  0  0  0
 15 29  1  0  0  0  0
 15 63  1  1  0  0  0
 16 17  1  0  0  0  0
 16 64  1  0  0  0  0
 16 65  1  0  0  0  0
 17 18  1  0  0  0  0
 17 66  1  6  0  0  0
 18 19  2  0  0  0  0
 18 20  1  0  0  0  0
 20 21  1  0  0  0  0
 20 67  1  0  0  0  0
 21 22  1  0  0  0  0
 21 23  1  0  0  0  0
 21 26  1  0  0  0  0
 22 23  1  0  0  0  0
 22 68  1  0  0  0  0
 22 69  1  0  0  0  0
 23 24  1  0  0  0  0
 23 70  1  6  0  0  0
 24 25  2  0  0  0  0
 24 71  1  0  0  0  0
 25 72  1  0  0  0  0
 25 73  1  0  0  0  0
 26 27  2  0  0  0  0
 26 28  1  0  0  0  0
 28 74  1  0  0  0  0
 29 30  1  0  0  0  0
 30 31  2  0  0  0  0
 30 39  1  0  0  0  0
 31 32  1  0  0  0  0
 31 75  1  0  0  0  0
 32 33  2  0  0  0  0
 32 76  1  0  0  0  0
 33 34  1  0  0  0  0
 34 35  2  0  0  0  0
 34 39  1  0  0  0  0
 35 36  1  0  0  0  0
 35 77  1  0  0  0  0
 36 37  2  0  0  0  0
 36 78  1  0  0  0  0
 37 38  1  0  0  0  0
 37 79  1  0  0  0  0
 38 39  2  0  0  0  0
 38 80  1  0  0  0  0
 40 41  1  0  0  0  0
 40 81  1  0  0  0  0
 41 42  2  0  0  0  0
 41 43  1  0  0  0  0
 43 44  1  0  0  0  0
 44 45  1  0  0  0  0
 44 46  1  0  0  0  0
 44 47  1  0  0  0  0
 45 82  1  0  0  0  0
 45 83  1  0  0  0  0
 45 84  1  0  0  0  0
 46 85  1  0  0  0  0
 46 86  1  0  0  0  0
 46 87  1  0  0  0  0
 47 88  1  0  0  0  0
 47 89  1  0  0  0  0
 47 90  1  0  0  0  0
M  END
