
 OpenBabel10072619503D

 46 49  0  0  0  0  0  0  0  0999 V2000
    1.4783   -0.3228   -0.0580 C   0  0  0  0  0  0  0  0  0  0  0  0
    0.6747   -1.3636   -0.5137 C   0  0  0  0  0  0  0  0  0  0  0  0
   -0.7047   -1.1825   -0.6261 C   0  0  0  0  0  0  0  0  0  0  0  0
   -1.2998    0.0359   -0.2713 C   0  0  0  0  0  0  0  0  0  0  0  0
   -0.4802    1.0772    0.1825 C   0  0  0  0  0  0  0  0  0  0  0  0
    0.9025    0.8973    0.2917 C   0  0  0  0  0  0  0  0  0  0  0  0
   -2.7392    0.2721   -0.4648 C   0  0  0  0  0  0  0  0  0  0  0  0
   -3.6756   -0.6859   -0.3768 C   0  0  0  0  0  0  0  0  0  0  0  0
   -5.1017   -0.4713   -0.6599 C   0  0  0  0  0  0  0  0  0  0  0  0
   -5.5230    0.4433   -1.6297 C   0  0  0  0  0  0  0  0  0  0  0  0
   -6.8801    0.6453   -1.8658 C   0  0  0  0  0  0  0  0  0  0  0  0
   -7.8406   -0.0779   -1.1492 C   0  0  0  0  0  0  0  0  0  0  0  0
   -7.4306   -1.0319   -0.2193 C   0  0  0  0  0  0  0  0  0  0  0  0
   -6.0651   -1.2349    0.0139 C   0  0  0  0  0  0  0  0  0  0  0  0
   -9.2461    0.3030   -1.2863 C   0  0  0  0  0  0  0  0  0  0  0  0
   -9.8508    0.3876   -2.4779 C   0  0  0  0  0  0  0  0  0  0  0  0
  -11.1018    1.1352   -2.6504 C   0  0  0  0  0  0  0  0  0  0  0  0
  -11.1800    2.0834   -3.6814 C   0  0  0  0  0  0  0  0  0  0  0  0
  -12.3086    2.9105   -3.8328 C   0  0  0  0  0  0  0  0  0  0  0  0
  -12.3866    3.8847   -4.8399 C   0  0  0  0  0  0  0  0  0  0  0  0
  -13.5078    4.7099   -4.9511 C   0  0  0  0  0  0  0  0  0  0  0  0
  -14.5686    4.5618   -4.0557 C   0  0  0  0  0  0  0  0  0  0  0  0
  -14.5067    3.5984   -3.0490 C   0  0  0  0  0  0  0  0  0  0  0  0
  -13.3870    2.7602   -2.9245 C   0  0  0  0  0  0  0  0  0  0  0  0
  -13.3169    1.7842   -1.9226 C   0  0  0  0  0  0  0  0  0  0  0  0
  -12.1846    0.9774   -1.7813 C   0  0  0  0  0  0  0  0  0  0  0  0
    2.5537   -0.4607    0.0162 H   0  0  0  0  0  0  0  0  0  0  0  0
    1.1173   -2.3146   -0.7969 H   0  0  0  0  0  0  0  0  0  0  0  0
   -1.3042   -2.0002   -1.0166 H   0  0  0  0  0  0  0  0  0  0  0  0
   -0.9071    2.0408    0.4531 H   0  0  0  0  0  0  0  0  0  0  0  0
    1.5308    1.7123    0.6413 H   0  0  0  0  0  0  0  0  0  0  0  0
   -3.0084    1.2979   -0.7103 H   0  0  0  0  0  0  0  0  0  0  0  0
   -3.4112   -1.6974   -0.0781 H   0  0  0  0  0  0  0  0  0  0  0  0
   -4.8068    1.0219   -2.2052 H   0  0  0  0  0  0  0  0  0  0  0  0
   -7.1804    1.4024   -2.5867 H   0  0  0  0  0  0  0  0  0  0  0  0
   -8.1634   -1.6070    0.3411 H   0  0  0  0  0  0  0  0  0  0  0  0
   -5.7646   -1.9772    0.7490 H   0  0  0  0  0  0  0  0  0  0  0  0
   -9.7066    0.6992   -0.3831 H   0  0  0  0  0  0  0  0  0  0  0  0
   -9.3691    0.0358   -3.3881 H   0  0  0  0  0  0  0  0  0  0  0  0
  -10.3371    2.1941   -4.3634 H   0  0  0  0  0  0  0  0  0  0  0  0
  -11.5614    4.0236   -5.5394 H   0  0  0  0  0  0  0  0  0  0  0  0
  -13.5448    5.4683   -5.7292 H   0  0  0  0  0  0  0  0  0  0  0  0
  -15.4533    5.1896   -4.1440 H   0  0  0  0  0  0  0  0  0  0  0  0
  -15.3446    3.5076   -2.3576 H   0  0  0  0  0  0  0  0  0  0  0  0
  -14.1473    1.6471   -1.2312 H   0  0  0  0  0  0  0  0  0  0  0  0
  -12.1529    0.2469   -0.9775 H   0  0  0  0  0  0  0  0  0  0  0  0
  1  2  2  0  0  0  0
  1  6  1  0  0  0  0
  1 27  1  0  0  0  0
  2  3  1  0  0  0  0
  2 28  1  0  0  0  0
  3  4  2  0  0  0  0
  3 29  1  0  0  0  0
  4  5  1  0  0  0  0
  4  7  1  0  0  0  0
  5  6  2  0  0  0  0
  5 30  1  0  0  0  0
  6 31  1  0  0  0  0
  7  8  2  3  0  0  0
  7 32  1  0  0  0  0
  8  9  1  0  0  0  0
  8 33  1  0  0  0  0
  9 10  2  0  0  0  0
  9 14  1  0  0  0  0
 10 11  1  0  0  0  0
 10 34  1  0  0  0  0
 11 12  2  0  0  0  0
 11 35  1  0  0  0  0
 12 13  1  0  0  0  0
 12 15  1  0  0  0  0
 13 14  2  0  0  0  0
 13 36  1  0  0  0  0
 14 37  1  0  0  0  0
 15 16  2  3  0  0  0
 15 38  1  0  0  0  0
 16 17  1  0  0  0  0
 16 39  1  0  0  0  0
 17 18  2  0  0  0  0
 17 26  1  0  0  0  0
 18 19  1  0  0  0  0
 18 40  1  0  0  0  0
 19 20  2  0  0  0  0
 19 24  1  0  0  0  0
 20 21  1  0  0  0  0
 20 41  1  0  0  0  0
 21 22  2  0  0  0  0
 21 42  1  0  0  0  0
 22 23  1  0  0  0  0
 22 43  1  0  0  0  0
 23 24  2  0  0  0  0
 23 44  1  0  0  0  0
 24 25  1  0  0  0  0
 25 26  2  0  0  0  0
 25 45  1  0  0  0  0
 26 46  1  0  0  0  0
M  END
