
 OpenBabel10072619593D

 50 51  0  0  0  0  0  0  0  0999 V2000
    0.4512   -1.4894    0.5718 C   0  0  0  0  0  0  0  0  0  0  0  0
    1.9166   -1.8068    0.8322 C   0  0  0  0  0  0  0  0  0  0  0  0
    2.8385   -1.0236   -0.1114 C   0  0  0  0  0  0  0  0  0  0  0  0
    4.2603   -1.3017    0.1604 N   0  0  0  0  0  0  0  0  0  0  0  0
    4.6773   -2.5942   -0.4063 C   0  0  0  0  0  0  0  0  0  0  0  0
    6.1277   -2.9116   -0.0465 C   0  0  0  0  0  0  0  0  0  0  0  0
    7.0985   -1.8005   -0.4636 C   0  0  0  0  0  0  0  0  0  0  0  0
    6.5781   -0.4415    0.0173 C   0  0  0  0  0  0  0  0  0  0  0  0
    5.1088   -0.2139   -0.3452 C   0  0  0  0  0  0  0  0  0  0  0  0
    7.3571   -1.7770   -1.9174 N   0  0  0  0  0  0  0  0  0  0  0  0
    8.1388   -2.6632   -2.6447 C   0  0  0  0  0  0  0  0  0  0  0  0
    9.0494   -3.9009   -1.9850 S   0  0  0  0  0  0  0  0  0  0  0  0
    8.1257   -2.3065   -3.9878 N   0  0  0  0  0  0  0  0  0  0  0  0
    8.2802   -3.1401   -5.1181 C   0  0  0  0  0  0  0  0  0  0  0  0
    7.8598   -4.4744   -5.1251 C   0  0  0  0  0  0  0  0  0  0  0  0
    7.9222   -5.2466   -6.2968 C   0  0  0  0  0  0  0  0  0  0  0  0
    8.4874   -4.7035   -7.4576 C   0  0  0  0  0  0  0  0  0  0  0  0
    8.8928   -3.3637   -7.4494 C   0  0  0  0  0  0  0  0  0  0  0  0
    8.7718   -2.5792   -6.2980 C   0  0  0  0  0  0  0  0  0  0  0  0
    8.6507   -5.3111   -8.6752 O   0  0  0  0  0  0  0  0  0  0  0  0
    8.7142   -6.7306   -8.6904 C   0  0  0  0  0  0  0  0  0  0  0  0
    7.4431   -6.5320   -6.3048 O   0  0  0  0  0  0  0  0  0  0  0  0
    6.1364   -6.6593   -5.7453 C   0  0  0  0  0  0  0  0  0  0  0  0
   -0.1854   -2.0422    1.2697 H   0  0  0  0  0  0  0  0  0  0  0  0
    0.1629   -1.7738   -0.4449 H   0  0  0  0  0  0  0  0  0  0  0  0
    0.2476   -0.4222    0.7010 H   0  0  0  0  0  0  0  0  0  0  0  0
    2.0593   -2.8858    0.7175 H   0  0  0  0  0  0  0  0  0  0  0  0
    2.1548   -1.5567    1.8735 H   0  0  0  0  0  0  0  0  0  0  0  0
    2.6347    0.0424    0.0549 H   0  0  0  0  0  0  0  0  0  0  0  0
    2.5883   -1.2303   -1.1603 H   0  0  0  0  0  0  0  0  0  0  0  0
    4.5511   -2.6093   -1.4971 H   0  0  0  0  0  0  0  0  0  0  0  0
    4.0589   -3.4045   -0.0040 H   0  0  0  0  0  0  0  0  0  0  0  0
    6.4027   -3.8718   -0.4938 H   0  0  0  0  0  0  0  0  0  0  0  0
    6.1955   -3.0468    1.0417 H   0  0  0  0  0  0  0  0  0  0  0  0
    8.0650   -1.9811    0.0210 H   0  0  0  0  0  0  0  0  0  0  0  0
    7.1866    0.3710   -0.3973 H   0  0  0  0  0  0  0  0  0  0  0  0
    6.6826   -0.3872    1.1097 H   0  0  0  0  0  0  0  0  0  0  0  0
    4.9990   -0.1020   -1.4321 H   0  0  0  0  0  0  0  0  0  0  0  0
    4.7994    0.7349    0.1123 H   0  0  0  0  0  0  0  0  0  0  0  0
    6.6869   -1.2699   -2.4773 H   0  0  0  0  0  0  0  0  0  0  0  0
    8.2658   -1.3152   -4.1451 H   0  0  0  0  0  0  0  0  0  0  0  0
    7.4449   -4.9139   -4.2245 H   0  0  0  0  0  0  0  0  0  0  0  0
    9.3093   -2.9287   -8.3566 H   0  0  0  0  0  0  0  0  0  0  0  0
    9.0926   -1.5413   -6.3392 H   0  0  0  0  0  0  0  0  0  0  0  0
    9.1290   -7.0299   -9.6577 H   0  0  0  0  0  0  0  0  0  0  0  0
    7.7121   -7.1640   -8.6240 H   0  0  0  0  0  0  0  0  0  0  0  0
    9.3806   -7.1187   -7.9128 H   0  0  0  0  0  0  0  0  0  0  0  0
    5.6754   -7.5526   -6.1762 H   0  0  0  0  0  0  0  0  0  0  0  0
    5.4922   -5.8047   -5.9849 H   0  0  0  0  0  0  0  0  0  0  0  0
    6.1976   -6.8038   -4.6625 H   0  0  0  0  0  0  0  0  0  0  0  0
  1  2  1  0  0  0  0
  1 24  1  0  0  0  0
  1 25  1  0  0  0  0
  1 26  1  0  0  0  0
  2  3  1  0  0  0  0
  2 27  1  0  0  0  0
  2 28  1  0  0  0  0
  3  4  1  0  0  0  0
  3 29  1  0  0  0  0
  3 30  1  0  0  0  0
  4  5  1  0  0  0  0
  4  9  1  0  0  0  0
  5  6  1  0  0  0  0
  5 31  1  0  0  0  0
  5 32  1  0  0  0  0
  6  7  1  0  0  0  0
  6 33  1  0  0  0  0
  6 34  1  0  0  0  0
  7  8  1  0  0  0  0
  7 10  1  0  0  0  0
  7 35  1  0  0  0  0
  8  9  1  0  0  0  0
  8 36  1  0  0  0  0
  8 37  1  0  0  0  0
  9 38  1  0  0  0  0
  9 39  1  0  0  0  0
 10 11  1  0  0  0  0
 10 40  1  0  0  0  0
 11 12  2  0  0  0  0
 11 13  1  0  0  0  0
 13 14  1  0  0  0  0
 13 41  1  0  0  0  0
 14 15  2  0  0  0  0
 14 19  1  0  0  0  0
 15 16  1  0  0  0  0
 15 42  1  0  0  0  0
 16 17  2  0  0  0  0
 16 22  1  0  0  0  0
 17 18  1  0  0  0  0
 17 20  1  0  0  0  0
 18 19  2  0  0  0  0
 18 43  1  0  0  0  0
 19 44  1  0  0  0  0
 20 21  1  0  0  0  0
 21 45  1  0  0  0  0
 21 46  1  0  0  0  0
 21 47  1  0  0  0  0
 22 23  1  0  0  0  0
 23 48  1  0  0  0  0
 23 49  1  0  0  0  0
 23 50  1  0  0  0  0
M  END
