
 OpenBabel10072619493D

 52 55  0  0  0  0  0  0  0  0999 V2000
    2.9260    3.6856   -0.9658 C   0  0  0  0  0  0  0  0  0  0  0  0
    2.3799    2.3950   -0.4615 N   0  0  0  0  0  0  0  0  0  0  0  0
    0.8887    2.5100   -0.2871 C   0  0  0  0  0  0  0  0  0  0  0  0
    0.2699    1.3833    0.5434 C   0  0  0  0  0  0  0  0  0  0  0  0
   -1.0092    1.8203    1.0224 O   0  0  0  0  0  0  0  0  0  0  0  0
   -1.6646    0.7904    1.7509 C   0  0  0  0  0  0  0  0  0  0  0  0
    2.8685    1.0249   -1.3839 S   0  0  0  0  0  0  0  0  0  0  0  0
    2.4236   -0.1695   -0.7030 O   0  0  0  0  0  0  0  0  0  0  0  0
    2.4954    1.2944   -2.7584 O   0  0  0  0  0  0  0  0  0  0  0  0
    4.6405    1.0387   -1.2695 C   0  0  0  0  0  0  0  0  0  0  0  0
    5.2486    1.1737   -0.0202 C   0  0  0  0  0  0  0  0  0  0  0  0
    6.6435    1.2185    0.0643 C   0  0  0  0  0  0  0  0  0  0  0  0
    7.4445    1.1166   -1.0836 C   0  0  0  0  0  0  0  0  0  0  0  0
    6.8080    0.9349   -2.3203 C   0  0  0  0  0  0  0  0  0  0  0  0
    5.4133    0.9157   -2.4234 C   0  0  0  0  0  0  0  0  0  0  0  0
    8.8353    1.1181   -0.9381 N   0  0  0  0  0  0  0  0  0  0  0  0
    9.8436    0.6159   -1.7523 C   0  0  0  0  0  0  0  0  0  0  0  0
   11.0791    1.0715   -1.5017 N   0  0  0  0  0  0  0  0  0  0  0  0
   12.0699    0.5879   -2.2703 C   0  0  0  0  0  0  0  0  0  0  0  0
   11.8808   -0.3546   -3.2501 C   0  0  0  0  0  0  0  0  0  0  0  0
   10.5917   -0.8064   -3.4044 C   0  0  0  0  0  0  0  0  0  0  0  0
    9.5698   -0.3061   -2.6851 N   0  0  0  0  0  0  0  0  0  0  0  0
   10.1773   -1.8572   -4.3293 C   0  0  0  0  0  0  0  0  0  0  0  0
    8.9041   -2.1909   -4.7697 C   0  0  0  0  0  0  0  0  0  0  0  0
    8.9093   -3.2713   -5.6138 N   0  0  0  0  0  0  0  0  0  0  0  0
   10.1686   -3.6399   -5.6723 C   0  0  0  0  0  0  0  0  0  0  0  0
   10.9878   -2.8128   -4.9122 N   0  0  0  0  0  0  0  0  0  0  0  0
   12.3468   -2.9377   -4.7547 N   0  0  0  0  0  0  0  0  0  0  0  0
   12.8419   -3.9478   -5.3955 C   0  0  0  0  0  0  0  0  0  0  0  0
   12.0956   -4.9111   -6.2355 C   0  0  0  0  0  0  0  0  0  0  0  0
   10.7772   -4.7196   -6.3521 C   0  0  0  0  0  0  0  0  0  0  0  0
    2.6614    4.4958   -0.2768 H   0  0  0  0  0  0  0  0  0  0  0  0
    2.5211    3.9236   -1.9539 H   0  0  0  0  0  0  0  0  0  0  0  0
    4.0175    3.6619   -1.0155 H   0  0  0  0  0  0  0  0  0  0  0  0
    0.3984    2.5825   -1.2656 H   0  0  0  0  0  0  0  0  0  0  0  0
    0.6753    3.4594    0.2226 H   0  0  0  0  0  0  0  0  0  0  0  0
    0.9117    1.1473    1.4000 H   0  0  0  0  0  0  0  0  0  0  0  0
    0.1302    0.4832   -0.0652 H   0  0  0  0  0  0  0  0  0  0  0  0
   -2.6185    1.1799    2.1143 H   0  0  0  0  0  0  0  0  0  0  0  0
   -1.0636    0.4829    2.6120 H   0  0  0  0  0  0  0  0  0  0  0  0
   -1.8644   -0.0667    1.1010 H   0  0  0  0  0  0  0  0  0  0  0  0
    4.6468    1.2366    0.8830 H   0  0  0  0  0  0  0  0  0  0  0  0
    7.1072    1.3050    1.0444 H   0  0  0  0  0  0  0  0  0  0  0  0
    7.3961    0.8358   -3.2303 H   0  0  0  0  0  0  0  0  0  0  0  0
    4.9509    0.7899   -3.3999 H   0  0  0  0  0  0  0  0  0  0  0  0
    9.2313    1.6795   -0.1991 H   0  0  0  0  0  0  0  0  0  0  0  0
   13.0569    0.9899   -2.0626 H   0  0  0  0  0  0  0  0  0  0  0  0
   12.7104   -0.7073   -3.8440 H   0  0  0  0  0  0  0  0  0  0  0  0
    7.9766   -1.6952   -4.5067 H   0  0  0  0  0  0  0  0  0  0  0  0
   13.9265   -4.1314   -5.3282 H   0  0  0  0  0  0  0  0  0  0  0  0
   12.6306   -5.7191   -6.7153 H   0  0  0  0  0  0  0  0  0  0  0  0
   10.1537   -5.3769   -6.9475 H   0  0  0  0  0  0  0  0  0  0  0  0
  1  2  1  0  0  0  0
  1 32  1  0  0  0  0
  1 33  1  0  0  0  0
  1 34  1  0  0  0  0
  2  3  1  0  0  0  0
  2  7  1  0  0  0  0
  3  4  1  0  0  0  0
  3 35  1  0  0  0  0
  3 36  1  0  0  0  0
  4  5  1  0  0  0  0
  4 37  1  0  0  0  0
  4 38  1  0  0  0  0
  5  6  1  0  0  0  0
  6 39  1  0  0  0  0
  6 40  1  0  0  0  0
  6 41  1  0  0  0  0
  7  8  2  0  0  0  0
  7  9  2  0  0  0  0
  7 10  1  0  0  0  0
 10 11  2  0  0  0  0
 10 15  1  0  0  0  0
 11 12  1  0  0  0  0
 11 42  1  0  0  0  0
 12 13  2  0  0  0  0
 12 43  1  0  0  0  0
 13 14  1  0  0  0  0
 13 16  1  0  0  0  0
 14 15  2  0  0  0  0
 14 44  1  0  0  0  0
 15 45  1  0  0  0  0
 16 17  1  0  0  0  0
 16 46  1  0  0  0  0
 17 18  2  0  0  0  0
 17 22  1  0  0  0  0
 18 19  1  0  0  0  0
 19 20  2  0  0  0  0
 19 47  1  0  0  0  0
 20 21  1  0  0  0  0
 20 48  1  0  0  0  0
 21 22  2  0  0  0  0
 21 23  1  0  0  0  0
 23 24  2  0  0  0  0
 23 27  1  0  0  0  0
 24 25  1  0  0  0  0
 24 49  1  0  0  0  0
 25 26  2  0  0  0  0
 26 27  1  0  0  0  0
 26 31  1  0  0  0  0
 27 28  1  0  0  0  0
 28 29  2  0  0  0  0
 29 30  1  0  0  0  0
 29 50  1  0  0  0  0
 30 31  2  0  0  0  0
 30 51  1  0  0  0  0
 31 52  1  0  0  0  0
M  END
