
 OpenBabel10072619483D

 38 38  0  0  0  0  0  0  0  0999 V2000
    2.2411   -0.2997   -0.8086 C   0  0  0  0  0  0  0  0  0  0  0  0
    0.7658   -0.2288   -0.5403 C   0  0  0  0  0  0  0  0  0  0  0  0
    0.2906    0.3212    0.6588 C   0  0  0  0  0  0  0  0  0  0  0  0
   -1.0795    0.3604    0.9251 C   0  0  0  0  0  0  0  0  0  0  0  0
   -1.9794   -0.1498   -0.0146 C   0  0  0  0  0  0  0  0  0  0  0  0
   -1.5187   -0.7290   -1.1988 C   0  0  0  0  0  0  0  0  0  0  0  0
   -0.1468   -0.7680   -1.4576 C   0  0  0  0  0  0  0  0  0  0  0  0
   -3.7158   -0.1138    0.3336 S   0  0  0  0  0  0  0  0  0  0  0  0
   -4.3818   -1.1212   -0.4676 O   0  0  0  0  0  0  0  0  0  0  0  0
   -3.8928   -0.0561    1.7682 O   0  0  0  0  0  0  0  0  0  0  0  0
   -4.1517    1.3971   -0.2944 N   0  0  0  0  0  0  0  0  0  0  0  0
   -5.5436    1.5824   -0.6949 N   0  0  0  0  0  0  0  0  0  0  0  0
   -6.1332    2.8420   -0.6995 C   0  0  0  0  0  0  0  0  0  0  0  0
   -5.2759    4.2284   -0.3189 S   0  0  0  0  0  0  0  0  0  0  0  0
   -7.4740    2.7534   -1.0299 N   0  0  0  0  0  0  0  0  0  0  0  0
   -8.5340    3.7917   -1.1294 C   0  0  0  0  0  0  0  0  0  0  0  0
   -8.2589    4.7770   -2.2748 C   0  0  0  0  0  0  0  0  0  0  0  0
   -9.8603    3.0636   -1.4453 C   0  0  0  0  0  0  0  0  0  0  0  0
   -8.7332    4.5427    0.1959 C   0  0  0  0  0  0  0  0  0  0  0  0
    2.7549    0.5727   -0.3914 H   0  0  0  0  0  0  0  0  0  0  0  0
    2.4445   -0.3117   -1.8847 H   0  0  0  0  0  0  0  0  0  0  0  0
    2.6592   -1.2068   -0.3618 H   0  0  0  0  0  0  0  0  0  0  0  0
    0.9879    0.7187    1.3941 H   0  0  0  0  0  0  0  0  0  0  0  0
   -1.4317    0.7806    1.8652 H   0  0  0  0  0  0  0  0  0  0  0  0
   -2.2148   -1.1524   -1.9189 H   0  0  0  0  0  0  0  0  0  0  0  0
    0.2089   -1.2234   -2.3804 H   0  0  0  0  0  0  0  0  0  0  0  0
   -3.7125    2.2118    0.1488 H   0  0  0  0  0  0  0  0  0  0  0  0
   -6.0834    0.7292   -0.8269 H   0  0  0  0  0  0  0  0  0  0  0  0
   -7.7548    1.8499   -1.3847 H   0  0  0  0  0  0  0  0  0  0  0  0
   -8.1183    4.2474   -3.2238 H   0  0  0  0  0  0  0  0  0  0  0  0
   -7.3636    5.3791   -2.1018 H   0  0  0  0  0  0  0  0  0  0  0  0
   -9.0946    5.4758   -2.4006 H   0  0  0  0  0  0  0  0  0  0  0  0
   -9.7905    2.5014   -2.3838 H   0  0  0  0  0  0  0  0  0  0  0  0
  -10.6947    3.7679   -1.5398 H   0  0  0  0  0  0  0  0  0  0  0  0
  -10.1153    2.3471   -0.6555 H   0  0  0  0  0  0  0  0  0  0  0  0
   -7.8923    5.1967    0.4374 H   0  0  0  0  0  0  0  0  0  0  0  0
   -8.8576    3.8423    1.0295 H   0  0  0  0  0  0  0  0  0  0  0  0
   -9.6234    5.1813    0.1557 H   0  0  0  0  0  0  0  0  0  0  0  0
  1  2  1  0  0  0  0
  1 20  1  0  0  0  0
  1 21  1  0  0  0  0
  1 22  1  0  0  0  0
  2  3  2  0  0  0  0
  2  7  1  0  0  0  0
  3  4  1  0  0  0  0
  3 23  1  0  0  0  0
  4  5  2  0  0  0  0
  4 24  1  0  0  0  0
  5  6  1  0  0  0  0
  5  8  1  0  0  0  0
  6  7  2  0  0  0  0
  6 25  1  0  0  0  0
  7 26  1  0  0  0  0
  8  9  2  0  0  0  0
  8 10  2  0  0  0  0
  8 11  1  0  0  0  0
 11 12  1  0  0  0  0
 11 27  1  0  0  0  0
 12 13  1  0  0  0  0
 12 28  1  0  0  0  0
 13 14  2  0  0  0  0
 13 15  1  0  0  0  0
 15 16  1  0  0  0  0
 15 29  1  0  0  0  0
 16 17  1  0  0  0  0
 16 18  1  0  0  0  0
 16 19  1  0  0  0  0
 17 30  1  0  0  0  0
 17 31  1  0  0  0  0
 17 32  1  0  0  0  0
 18 33  1  0  0  0  0
 18 34  1  0  0  0  0
 18 35  1  0  0  0  0
 19 36  1  0  0  0  0
 19 37  1  0  0  0  0
 19 38  1  0  0  0  0
M  END
