
 OpenBabel10072620003D

 36 36  0  0  0  0  0  0  0  0999 V2000
    0.8385   -0.1774   -0.3132 C   0  0  0  0  0  0  0  0  0  0  0  0
    2.1842    0.2658   -0.4282 O   0  0  0  0  0  0  0  0  0  0  0  0
    2.8382    0.6185    0.7245 C   0  0  0  0  0  0  0  0  0  0  0  0
    2.2437    0.6745    1.9889 C   0  0  0  0  0  0  0  0  0  0  0  0
    2.9982    1.0124    3.1258 C   0  0  0  0  0  0  0  0  0  0  0  0
    4.3631    1.3136    2.9835 C   0  0  0  0  0  0  0  0  0  0  0  0
    4.9744    1.2818    1.7285 C   0  0  0  0  0  0  0  0  0  0  0  0
    4.2039    0.9397    0.6017 C   0  0  0  0  0  0  0  0  0  0  0  0
    4.8487    0.8719   -0.6136 O   0  0  0  0  0  0  0  0  0  0  0  0
    4.3920    1.8884   -1.5040 C   0  0  0  0  0  0  0  0  0  0  0  0
    6.2978    1.5639    1.4960 O   0  0  0  0  0  0  0  0  0  0  0  0
    7.0466    2.1158    2.5699 C   0  0  0  0  0  0  0  0  0  0  0  0
    2.3547    1.0238    4.4946 C   0  0  0  0  0  0  0  0  0  0  0  0
    2.1190   -0.3917    5.0357 C   0  0  0  0  0  0  0  0  0  0  0  0
    1.6866   -0.4032    6.4214 N   0  0  0  0  0  0  0  0  0  0  0  0
    0.4275   -0.0067    6.7658 C   0  0  0  0  0  0  0  0  0  0  0  0
   -0.4066    0.4673    6.0077 O   0  0  0  0  0  0  0  0  0  0  0  0
    0.1714   -0.1913    8.0837 N   0  0  0  0  0  0  0  0  0  0  0  0
    0.5047   -0.4873   -1.3086 H   0  0  0  0  0  0  0  0  0  0  0  0
    0.1846    0.6361    0.0185 H   0  0  0  0  0  0  0  0  0  0  0  0
    0.7607   -1.0475    0.3476 H   0  0  0  0  0  0  0  0  0  0  0  0
    1.1876    0.4569    2.1225 H   0  0  0  0  0  0  0  0  0  0  0  0
    4.9305    1.5648    3.8744 H   0  0  0  0  0  0  0  0  0  0  0  0
    5.2573    2.2562   -2.0635 H   0  0  0  0  0  0  0  0  0  0  0  0
    3.9355    2.7440   -0.9918 H   0  0  0  0  0  0  0  0  0  0  0  0
    3.6858    1.4602   -2.2212 H   0  0  0  0  0  0  0  0  0  0  0  0
    8.0492    2.3457    2.1959 H   0  0  0  0  0  0  0  0  0  0  0  0
    7.1552    1.3949    3.3867 H   0  0  0  0  0  0  0  0  0  0  0  0
    6.6014    3.0523    2.9226 H   0  0  0  0  0  0  0  0  0  0  0  0
    1.4113    1.5795    4.4386 H   0  0  0  0  0  0  0  0  0  0  0  0
    2.9837    1.5850    5.1980 H   0  0  0  0  0  0  0  0  0  0  0  0
    3.0440   -0.9778    4.9901 H   0  0  0  0  0  0  0  0  0  0  0  0
    1.3651   -0.9168    4.4370 H   0  0  0  0  0  0  0  0  0  0  0  0
    2.0528   -1.1458    7.0030 H   0  0  0  0  0  0  0  0  0  0  0  0
    0.9347   -0.0208    8.7236 H   0  0  0  0  0  0  0  0  0  0  0  0
   -0.7131    0.2076    8.3716 H   0  0  0  0  0  0  0  0  0  0  0  0
  1  2  1  0  0  0  0
  1 19  1  0  0  0  0
  1 20  1  0  0  0  0
  1 21  1  0  0  0  0
  2  3  1  0  0  0  0
  3  4  2  0  0  0  0
  3  8  1  0  0  0  0
  4  5  1  0  0  0  0
  4 22  1  0  0  0  0
  5  6  2  0  0  0  0
  5 13  1  0  0  0  0
  6  7  1  0  0  0  0
  6 23  1  0  0  0  0
  7  8  2  0  0  0  0
  7 11  1  0  0  0  0
  8  9  1  0  0  0  0
  9 10  1  0  0  0  0
 10 24  1  0  0  0  0
 10 25  1  0  0  0  0
 10 26  1  0  0  0  0
 11 12  1  0  0  0  0
 12 27  1  0  0  0  0
 12 28  1  0  0  0  0
 12 29  1  0  0  0  0
 13 14  1  0  0  0  0
 13 30  1  0  0  0  0
 13 31  1  0  0  0  0
 14 15  1  0  0  0  0
 14 32  1  0  0  0  0
 14 33  1  0  0  0  0
 15 16  1  0  0  0  0
 15 34  1  0  0  0  0
 16 17  2  0  0  0  0
 16 18  1  0  0  0  0
 18 35  1  0  0  0  0
 18 36  1  0  0  0  0
M  END
