
 OpenBabel10072620093D

 20 20  0  0  0  0  0  0  0  0999 V2000
    0.6163    1.2253    0.0025 C   0  0  0  0  0  0  0  0  0  0  0  0
    1.4624    0.1189   -0.0095 C   0  0  0  0  0  0  0  0  0  0  0  0
    0.9066   -1.1593   -0.0124 C   0  0  0  0  0  0  0  0  0  0  0  0
   -0.4756   -1.2791   -0.0034 C   0  0  0  0  0  0  0  0  0  0  0  0
   -1.3199   -0.2203    0.0082 N   0  0  0  0  0  0  0  0  0  0  0  0
   -0.7535    1.0077    0.0109 C   0  0  0  0  0  0  0  0  0  0  0  0
    1.7370   -2.3733   -0.0247 C   0  0  0  0  0  0  0  0  0  0  0  0
    3.0310   -2.3138   -0.0328 N   0  0  0  0  0  0  0  0  0  0  0  0
    3.6574   -3.5292   -0.0437 N   0  0  0  0  0  0  0  0  0  0  0  0
    5.0212   -3.6261   -0.0527 C   0  0  0  0  0  0  0  0  0  0  0  0
    5.8047   -5.0874   -0.0662 S   0  0  0  0  0  0  0  0  0  0  0  0
    5.6913   -2.4510   -0.0498 N   0  0  0  0  0  0  0  0  0  0  0  0
    1.0157    2.2337    0.0052 H   0  0  0  0  0  0  0  0  0  0  0  0
    2.5399    0.2579   -0.0163 H   0  0  0  0  0  0  0  0  0  0  0  0
   -0.9679   -2.2472   -0.0052 H   0  0  0  0  0  0  0  0  0  0  0  0
   -1.4522    1.8401    0.0204 H   0  0  0  0  0  0  0  0  0  0  0  0
    1.2013   -3.3404   -0.0266 H   0  0  0  0  0  0  0  0  0  0  0  0
    3.1209   -4.3912   -0.0455 H   0  0  0  0  0  0  0  0  0  0  0  0
    5.1359   -1.6048   -0.0409 H   0  0  0  0  0  0  0  0  0  0  0  0
    6.6995   -2.4135   -0.0554 H   0  0  0  0  0  0  0  0  0  0  0  0
  1  2  2  0  0  0  0
  1  6  1  0  0  0  0
  1 13  1  0  0  0  0
  2  3  1  0  0  0  0
  2 14  1  0  0  0  0
  3  4  2  0  0  0  0
  3  7  1  0  0  0  0
  4  5  1  0  0  0  0
  4 15  1  0  0  0  0
  5  6  2  0  0  0  0
  6 16  1  0  0  0  0
  7  8  2  3  0  0  0
  7 17  1  0  0  0  0
  8  9  1  0  0  0  0
  9 10  1  0  0  0  0
  9 18  1  0  0  0  0
 10 11  2  0  0  0  0
 10 12  1  0  0  0  0
 12 19  1  0  0  0  0
 12 20  1  0  0  0  0
M  END
