
 OpenBabel10072620113D

 60 59  0  0  0  0  0  0  0  0999 V2000
    0.8400   -0.1864   -0.0260 C   0  0  0  0  0  0  0  0  0  0  0  0
    2.3600   -0.1536   -0.0191 C   0  0  0  0  0  0  0  0  0  0  0  0
    2.8894    1.2681    0.1669 C   0  0  0  0  0  0  0  0  0  0  0  0
    4.4184    1.2958    0.1719 C   0  0  0  0  0  0  0  0  0  0  0  0
    4.9498    2.7183    0.3554 C   0  0  0  0  0  0  0  0  0  0  0  0
    6.4787    2.7405    0.3604 C   0  0  0  0  0  0  0  0  0  0  0  0
    7.0170    4.1605    0.5421 C   0  0  0  0  0  0  0  0  0  0  0  0
    8.5462    4.1739    0.5461 C   0  0  0  0  0  0  0  0  0  0  0  0
    9.0939    5.5902    0.7275 C   0  0  0  0  0  0  0  0  0  0  0  0
   10.6233    5.5939    0.7299 C   0  0  0  0  0  0  0  0  0  0  0  0
   11.1796    7.0067    0.9114 C   0  0  0  0  0  0  0  0  0  0  0  0
   12.7091    7.0015    0.9132 C   0  0  0  0  0  0  0  0  0  0  0  0
   13.2719    8.4117    1.0953 C   0  0  0  0  0  0  0  0  0  0  0  0
   14.8014    8.4025    1.0958 C   0  0  0  0  0  0  0  0  0  0  0  0
   15.3662    9.8120    1.2784 C   0  0  0  0  0  0  0  0  0  0  0  0
   16.8953    9.8024    1.2773 C   0  0  0  0  0  0  0  0  0  0  0  0
   17.4601   11.2100    1.4590 C   0  0  0  0  0  0  0  0  0  0  0  0
   18.9729   11.2190    1.4597 C   0  0  0  0  0  0  0  0  0  0  0  0
   19.6833   10.2304    1.3314 O   0  0  0  0  0  0  0  0  0  0  0  0
   19.3995   12.5157    1.6276 O   0  0  0  0  0  0  0  0  0  0  0  0
   20.7798   12.7136    1.6528 C   0  0  0  0  0  0  0  0  0  0  0  0
   21.3037   13.9308    1.8102 C   0  0  0  0  0  0  0  0  0  0  0  0
    0.4839   -1.2126   -0.1600 H   0  0  0  0  0  0  0  0  0  0  0  0
    0.4382    0.4219   -0.8425 H   0  0  0  0  0  0  0  0  0  0  0  0
    0.4349    0.1932    0.9174 H   0  0  0  0  0  0  0  0  0  0  0  0
    2.7325   -0.5695   -0.9624 H   0  0  0  0  0  0  0  0  0  0  0  0
    2.7297   -0.7972    0.7877 H   0  0  0  0  0  0  0  0  0  0  0  0
    2.5115    1.6805    1.1103 H   0  0  0  0  0  0  0  0  0  0  0  0
    2.5130    1.9089   -0.6398 H   0  0  0  0  0  0  0  0  0  0  0  0
    4.7965    0.8817   -0.7707 H   0  0  0  0  0  0  0  0  0  0  0  0
    4.7946    0.6563    0.9797 H   0  0  0  0  0  0  0  0  0  0  0  0
    4.5728    3.1334    1.2980 H   0  0  0  0  0  0  0  0  0  0  0  0
    4.5752    3.3581   -0.4529 H   0  0  0  0  0  0  0  0  0  0  0  0
    6.8548    2.3233   -0.5817 H   0  0  0  0  0  0  0  0  0  0  0  0
    6.8521    2.1003    1.1690 H   0  0  0  0  0  0  0  0  0  0  0  0
    6.6427    4.5783    1.4845 H   0  0  0  0  0  0  0  0  0  0  0  0
    6.6454    4.8013   -0.2667 H   0  0  0  0  0  0  0  0  0  0  0  0
    8.9190    3.7546   -0.3963 H   0  0  0  0  0  0  0  0  0  0  0  0
    8.9164    3.5314    1.3542 H   0  0  0  0  0  0  0  0  0  0  0  0
    8.7233    6.0102    1.6704 H   0  0  0  0  0  0  0  0  0  0  0  0
    8.7256    6.2336   -0.0806 H   0  0  0  0  0  0  0  0  0  0  0  0
   10.9927    5.1726   -0.2130 H   0  0  0  0  0  0  0  0  0  0  0  0
   10.9903    4.9488    1.5375 H   0  0  0  0  0  0  0  0  0  0  0  0
   10.8117    7.4287    1.8544 H   0  0  0  0  0  0  0  0  0  0  0  0
   10.8147    7.6523    0.1034 H   0  0  0  0  0  0  0  0  0  0  0  0
   13.0758    6.5788   -0.0301 H   0  0  0  0  0  0  0  0  0  0  0  0
   13.0730    6.3541    1.7204 H   0  0  0  0  0  0  0  0  0  0  0  0
   12.9066    8.8341    2.0392 H   0  0  0  0  0  0  0  0  0  0  0  0
   12.9086    9.0595    0.2883 H   0  0  0  0  0  0  0  0  0  0  0  0
   15.1665    7.9799    0.1518 H   0  0  0  0  0  0  0  0  0  0  0  0
   15.1646    7.7539    1.9022 H   0  0  0  0  0  0  0  0  0  0  0  0
   15.0021   10.2341    2.2230 H   0  0  0  0  0  0  0  0  0  0  0  0
   15.0022   10.4608    0.4726 H   0  0  0  0  0  0  0  0  0  0  0  0
   17.2616    9.3766    0.3347 H   0  0  0  0  0  0  0  0  0  0  0  0
   17.2615    9.1512    2.0807 H   0  0  0  0  0  0  0  0  0  0  0  0
   17.1161   11.6256    2.4128 H   0  0  0  0  0  0  0  0  0  0  0  0
   17.1156   11.8545    0.6424 H   0  0  0  0  0  0  0  0  0  0  0  0
   21.3811   11.8206    1.5370 H   0  0  0  0  0  0  0  0  0  0  0  0
   20.6702   14.8041    1.9234 H   0  0  0  0  0  0  0  0  0  0  0  0
   22.3785   14.0737    1.8284 H   0  0  0  0  0  0  0  0  0  0  0  0
  1  2  1  0  0  0  0
  1 23  1  0  0  0  0
  1 24  1  0  0  0  0
  1 25  1  0  0  0  0
  2  3  1  0  0  0  0
  2 26  1  0  0  0  0
  2 27  1  0  0  0  0
  3  4  1  0  0  0  0
  3 28  1  0  0  0  0
  3 29  1  0  0  0  0
  4  5  1  0  0  0  0
  4 30  1  0  0  0  0
  4 31  1  0  0  0  0
  5  6  1  0  0  0  0
  5 32  1  0  0  0  0
  5 33  1  0  0  0  0
  6  7  1  0  0  0  0
  6 34  1  0  0  0  0
  6 35  1  0  0  0  0
  7  8  1  0  0  0  0
  7 36  1  0  0  0  0
  7 37  1  0  0  0  0
  8  9  1  0  0  0  0
  8 38  1  0  0  0  0
  8 39  1  0  0  0  0
  9 10  1  0  0  0  0
  9 40  1  0  0  0  0
  9 41  1  0  0  0  0
 10 11  1  0  0  0  0
 10 42  1  0  0  0  0
 10 43  1  0  0  0  0
 11 12  1  0  0  0  0
 11 44  1  0  0  0  0
 11 45  1  0  0  0  0
 12 13  1  0  0  0  0
 12 46  1  0  0  0  0
 12 47  1  0  0  0  0
 13 14  1  0  0  0  0
 13 48  1  0  0  0  0
 13 49  1  0  0  0  0
 14 15  1  0  0  0  0
 14 50  1  0  0  0  0
 14 51  1  0  0  0  0
 15 16  1  0  0  0  0
 15 52  1  0  0  0  0
 15 53  1  0  0  0  0
 16 17  1  0  0  0  0
 16 54  1  0  0  0  0
 16 55  1  0  0  0  0
 17 18  1  0  0  0  0
 17 56  1  0  0  0  0
 17 57  1  0  0  0  0
 18 19  2  0  0  0  0
 18 20  1  0  0  0  0
 20 21  1  0  0  0  0
 21 22  2  0  0  0  0
 21 58  1  0  0  0  0
 22 59  1  0  0  0  0
 22 60  1  0  0  0  0
M  END
