
 OpenBabel10072620093D

 31 32  0  0  0  0  0  0  0  0999 V2000
   -1.0804    1.3065   -1.5737 C   0  0  0  0  0  0  0  0  0  0  0  0
    0.1595    0.8781   -2.0596 C   0  0  0  0  0  0  0  0  0  0  0  0
    0.5134   -0.4604   -1.9610 C   0  0  0  0  0  0  0  0  0  0  0  0
   -0.3551   -1.3831   -1.3953 C   0  0  0  0  0  0  0  0  0  0  0  0
   -1.5936   -0.9543   -0.9112 C   0  0  0  0  0  0  0  0  0  0  0  0
   -1.9594    0.3991   -0.9760 C   0  0  0  0  0  0  0  0  0  0  0  0
   -3.2429    0.7338   -0.4937 N   0  0  0  0  0  0  0  0  0  0  0  0
   -3.7988    1.9536   -0.1325 C   0  0  0  0  0  0  0  0  0  0  0  0
   -2.9858    3.3472    0.3010 S   0  0  0  0  0  0  0  0  0  0  0  0
   -5.1827    1.8329   -0.1331 N   0  0  0  0  0  0  0  0  0  0  0  0
   -6.1564    2.9177    0.0102 C   0  0  0  0  0  0  0  0  0  0  0  0
   -6.3424    3.7230   -1.2843 C   0  0  0  0  0  0  0  0  0  0  0  0
   -6.7014    2.8521   -2.4406 C   0  0  0  0  0  0  0  0  0  0  0  0
   -7.8814    2.2497   -2.8182 C   0  0  0  0  0  0  0  0  0  0  0  0
   -7.7022    1.4935   -3.9466 N   0  0  0  0  0  0  0  0  0  0  0  0
   -6.4396    1.6457   -4.2733 C   0  0  0  0  0  0  0  0  0  0  0  0
   -5.7917    2.4658   -3.3953 N   0  0  0  0  0  0  0  0  0  0  0  0
    1.7001   -0.8683   -2.4276 F   0  0  0  0  0  0  0  0  0  0  0  0
   -1.3367    2.3515   -1.7069 H   0  0  0  0  0  0  0  0  0  0  0  0
    0.8445    1.5827   -2.5209 H   0  0  0  0  0  0  0  0  0  0  0  0
   -0.0655   -2.4269   -1.3335 H   0  0  0  0  0  0  0  0  0  0  0  0
   -2.2612   -1.6915   -0.4717 H   0  0  0  0  0  0  0  0  0  0  0  0
   -3.8165   -0.0571   -0.2294 H   0  0  0  0  0  0  0  0  0  0  0  0
   -5.5484    1.0277   -0.6249 H   0  0  0  0  0  0  0  0  0  0  0  0
   -5.8557    3.5791    0.8283 H   0  0  0  0  0  0  0  0  0  0  0  0
   -7.1016    2.4435    0.2985 H   0  0  0  0  0  0  0  0  0  0  0  0
   -5.4285    4.2811   -1.5187 H   0  0  0  0  0  0  0  0  0  0  0  0
   -7.1329    4.4672   -1.1314 H   0  0  0  0  0  0  0  0  0  0  0  0
   -8.8465    2.3082   -2.3307 H   0  0  0  0  0  0  0  0  0  0  0  0
   -5.9445    1.1926   -5.1221 H   0  0  0  0  0  0  0  0  0  0  0  0
   -4.8147    2.7258   -3.4356 H   0  0  0  0  0  0  0  0  0  0  0  0
  1  2  2  0  0  0  0
  1  6  1  0  0  0  0
  1 19  1  0  0  0  0
  2  3  1  0  0  0  0
  2 20  1  0  0  0  0
  3  4  2  0  0  0  0
  3 18  1  0  0  0  0
  4  5  1  0  0  0  0
  4 21  1  0  0  0  0
  5  6  2  0  0  0  0
  5 22  1  0  0  0  0
  6  7  1  0  0  0  0
  7  8  1  0  0  0  0
  7 23  1  0  0  0  0
  8  9  2  0  0  0  0
  8 10  1  0  0  0  0
 10 11  1  0  0  0  0
 10 24  1  0  0  0  0
 11 12  1  0  0  0  0
 11 25  1  0  0  0  0
 11 26  1  0  0  0  0
 12 13  1  0  0  0  0
 12 27  1  0  0  0  0
 12 28  1  0  0  0  0
 13 14  2  0  0  0  0
 13 17  1  0  0  0  0
 14 15  1  0  0  0  0
 14 29  1  0  0  0  0
 15 16  2  0  0  0  0
 16 17  1  0  0  0  0
 16 30  1  0  0  0  0
 17 31  1  0  0  0  0
M  END
