
 OpenBabel10072620173D

 24 23  0  0  0  0  0  0  0  0999 V2000
    1.1585   -0.0531   -0.1518 C   0  0  0  0  0  0  0  0  0  0  0  0
    0.3415   -0.1248    0.8507 N   0  0  0  0  0  0  0  0  0  0  0  0
   -0.9822   -0.0562    0.5091 N   0  0  0  0  0  0  0  0  0  0  0  0
   -1.9679   -0.1101    1.4542 C   0  0  0  0  0  0  0  0  0  0  0  0
   -3.5764   -0.0318    1.0592 S   0  0  0  0  0  0  0  0  0  0  0  0
   -1.5484   -0.2318    2.7341 N   0  0  0  0  0  0  0  0  0  0  0  0
    2.5266   -0.1081   -0.0802 N   0  0  0  0  0  0  0  0  0  0  0  0
    3.1823    0.0082    1.1154 N   0  0  0  0  0  0  0  0  0  0  0  0
    4.5504   -0.0445    1.1868 C   0  0  0  0  0  0  0  0  0  0  0  0
    5.3673    0.0296    0.1844 N   0  0  0  0  0  0  0  0  0  0  0  0
    6.6911   -0.0371    0.5260 N   0  0  0  0  0  0  0  0  0  0  0  0
    7.6768    0.0204   -0.4189 C   0  0  0  0  0  0  0  0  0  0  0  0
    9.2854   -0.0554   -0.0239 S   0  0  0  0  0  0  0  0  0  0  0  0
    7.2572    0.1434   -1.6987 N   0  0  0  0  0  0  0  0  0  0  0  0
    0.8106    0.0511   -1.1955 H   0  0  0  0  0  0  0  0  0  0  0  0
   -1.2628    0.0344   -0.4627 H   0  0  0  0  0  0  0  0  0  0  0  0
   -0.5498   -0.2529    2.8932 H   0  0  0  0  0  0  0  0  0  0  0  0
   -2.2003   -0.2663    3.5038 H   0  0  0  0  0  0  0  0  0  0  0  0
    3.0661    0.1655   -0.9026 H   0  0  0  0  0  0  0  0  0  0  0  0
    2.6431   -0.2662    1.9377 H   0  0  0  0  0  0  0  0  0  0  0  0
    4.8986   -0.1491    2.2305 H   0  0  0  0  0  0  0  0  0  0  0  0
    6.9719   -0.1287    1.4976 H   0  0  0  0  0  0  0  0  0  0  0  0
    6.2586    0.1644   -1.8577 H   0  0  0  0  0  0  0  0  0  0  0  0
    7.9091    0.1816   -2.4682 H   0  0  0  0  0  0  0  0  0  0  0  0
  1  2  2  0  0  0  0
  1  7  1  0  0  0  0
  1 15  1  0  0  0  0
  2  3  1  0  0  0  0
  3  4  1  0  0  0  0
  3 16  1  0  0  0  0
  4  5  2  0  0  0  0
  4  6  1  0  0  0  0
  6 17  1  0  0  0  0
  6 18  1  0  0  0  0
  7  8  1  0  0  0  0
  7 19  1  0  0  0  0
  8  9  1  0  0  0  0
  8 20  1  0  0  0  0
  9 10  2  0  0  0  0
  9 21  1  0  0  0  0
 10 11  1  0  0  0  0
 11 12  1  0  0  0  0
 11 22  1  0  0  0  0
 12 13  2  0  0  0  0
 12 14  1  0  0  0  0
 14 23  1  0  0  0  0
 14 24  1  0  0  0  0
M  END
