
 OpenBabel10072620173D

 69 71  0  0  0  0  0  0  0  0999 V2000
    0.3128   -2.9729   -4.7655 C   0  0  0  0  0  0  0  0  0  0  0  0
    1.4249   -3.9140   -4.3292 C   0  0  0  0  0  0  0  0  0  0  0  0
    2.4988   -3.1908   -3.5854 C   0  0  0  0  0  0  0  0  0  0  0  0
    3.5705   -2.4234   -4.0204 C   0  0  0  0  0  0  0  0  0  0  0  0
    4.2605   -1.8919   -2.9570 N   0  0  0  0  0  0  0  0  0  0  0  0
    3.6446   -2.3311   -1.8869 C   0  0  0  0  0  0  0  0  0  0  0  0
    2.5688   -3.1086   -2.2107 N   0  0  0  0  0  0  0  0  0  0  0  0
    1.6379   -3.6548   -1.2428 C   0  0  0  0  0  0  0  0  0  0  0  0
    1.9919   -5.0761   -0.8268 C   0  0  0  0  0  0  0  0  0  0  0  0
    0.9794   -5.6062    0.1830 C   0  0  0  0  0  0  0  0  0  0  0  0
    1.3420   -6.9471    0.5059 O   0  0  0  0  0  0  0  0  0  0  0  0
    0.5495   -7.6124    1.4182 C   0  0  0  0  0  0  0  0  0  0  0  0
   -0.5625   -7.0550    2.0544 C   0  0  0  0  0  0  0  0  0  0  0  0
   -1.2963   -7.8132    2.9616 C   0  0  0  0  0  0  0  0  0  0  0  0
   -0.9434   -9.1378    3.2087 C   0  0  0  0  0  0  0  0  0  0  0  0
    0.1590   -9.7327    2.5673 C   0  0  0  0  0  0  0  0  0  0  0  0
    0.9448   -8.9445    1.7057 C   0  0  0  0  0  0  0  0  0  0  0  0
    2.1043   -9.3931    1.0239 N   0  0  0  0  0  0  0  0  0  0  0  0
    3.0624  -10.2640    1.4885 C   0  0  0  0  0  0  0  0  0  0  0  0
    3.1601  -10.7185    2.6190 O   0  0  0  0  0  0  0  0  0  0  0  0
    3.9637  -10.5575    0.4811 N   0  0  0  0  0  0  0  0  0  0  0  0
    4.9849  -11.5617    0.7030 C   0  0  0  0  0  0  0  0  0  0  0  0
    6.0820  -11.5150   -0.3585 C   0  0  0  0  0  0  0  0  0  0  0  0
    6.9178  -10.2201   -0.3634 C   0  0  0  0  0  0  0  0  0  0  0  0
    7.6729  -10.0059    0.9496 C   0  0  0  0  0  0  0  0  0  0  0  0
    7.9125  -10.2551   -1.5266 C   0  0  0  0  0  0  0  0  0  0  0  0
    0.3942  -11.1925    2.8390 C   0  0  0  0  0  0  0  0  0  0  0  0
    3.9088   -2.1031   -5.3938 C   0  0  0  0  0  0  0  0  0  0  0  0
    4.1070   -0.7630   -5.7487 C   0  0  0  0  0  0  0  0  0  0  0  0
    4.4238   -0.4161   -7.0631 C   0  0  0  0  0  0  0  0  0  0  0  0
    4.5510   -1.4100   -8.0318 C   0  0  0  0  0  0  0  0  0  0  0  0
    4.3714   -2.7488   -7.6858 C   0  0  0  0  0  0  0  0  0  0  0  0
    4.0586   -3.0961   -6.3687 C   0  0  0  0  0  0  0  0  0  0  0  0
   -0.4567   -3.5262   -5.3131 H   0  0  0  0  0  0  0  0  0  0  0  0
    0.6925   -2.1830   -5.4223 H   0  0  0  0  0  0  0  0  0  0  0  0
   -0.1619   -2.4934   -3.9030 H   0  0  0  0  0  0  0  0  0  0  0  0
    1.8424   -4.4104   -5.2105 H   0  0  0  0  0  0  0  0  0  0  0  0
    1.0004   -4.7151   -3.7150 H   0  0  0  0  0  0  0  0  0  0  0  0
    3.9260   -2.1054   -0.8665 H   0  0  0  0  0  0  0  0  0  0  0  0
    0.6340   -3.6105   -1.6787 H   0  0  0  0  0  0  0  0  0  0  0  0
    1.6353   -2.9864   -0.3732 H   0  0  0  0  0  0  0  0  0  0  0  0
    2.9984   -5.1137   -0.3902 H   0  0  0  0  0  0  0  0  0  0  0  0
    2.0277   -5.7407   -1.6995 H   0  0  0  0  0  0  0  0  0  0  0  0
   -0.0241   -5.5844   -0.2597 H   0  0  0  0  0  0  0  0  0  0  0  0
    1.0081   -4.9806    1.0833 H   0  0  0  0  0  0  0  0  0  0  0  0
   -0.8817   -6.0343    1.8765 H   0  0  0  0  0  0  0  0  0  0  0  0
   -2.1554   -7.3801    3.4676 H   0  0  0  0  0  0  0  0  0  0  0  0
   -1.5487   -9.7209    3.9010 H   0  0  0  0  0  0  0  0  0  0  0  0
    2.4739   -8.7083    0.3748 H   0  0  0  0  0  0  0  0  0  0  0  0
    3.5538  -10.5279   -0.4415 H   0  0  0  0  0  0  0  0  0  0  0  0
    4.4844  -12.5366    0.6667 H   0  0  0  0  0  0  0  0  0  0  0  0
    5.3985  -11.4533    1.7106 H   0  0  0  0  0  0  0  0  0  0  0  0
    5.6217  -11.6459   -1.3469 H   0  0  0  0  0  0  0  0  0  0  0  0
    6.7470  -12.3748   -0.2075 H   0  0  0  0  0  0  0  0  0  0  0  0
    6.2516   -9.3628   -0.5202 H   0  0  0  0  0  0  0  0  0  0  0  0
    8.3049  -10.8677    1.1896 H   0  0  0  0  0  0  0  0  0  0  0  0
    6.9851   -9.8432    1.7847 H   0  0  0  0  0  0  0  0  0  0  0  0
    8.3175   -9.1224    0.8867 H   0  0  0  0  0  0  0  0  0  0  0  0
    8.6146  -11.0896   -1.4237 H   0  0  0  0  0  0  0  0  0  0  0  0
    8.4927   -9.3273   -1.5703 H   0  0  0  0  0  0  0  0  0  0  0  0
    7.3901  -10.3664   -2.4825 H   0  0  0  0  0  0  0  0  0  0  0  0
   -0.5532  -11.7031    3.0481 H   0  0  0  0  0  0  0  0  0  0  0  0
    1.0408  -11.3205    3.7116 H   0  0  0  0  0  0  0  0  0  0  0  0
    0.8190  -11.7018    1.9692 H   0  0  0  0  0  0  0  0  0  0  0  0
    4.0125    0.0148   -4.9934 H   0  0  0  0  0  0  0  0  0  0  0  0
    4.5746    0.6273   -7.3256 H   0  0  0  0  0  0  0  0  0  0  0  0
    4.8003   -1.1397   -9.0545 H   0  0  0  0  0  0  0  0  0  0  0  0
    4.4841   -3.5232   -8.4400 H   0  0  0  0  0  0  0  0  0  0  0  0
    3.9518   -4.1451   -6.1079 H   0  0  0  0  0  0  0  0  0  0  0  0
  1  2  1  0  0  0  0
  1 34  1  0  0  0  0
  1 35  1  0  0  0  0
  1 36  1  0  0  0  0
  2  3  1  0  0  0  0
  2 37  1  0  0  0  0
  2 38  1  0  0  0  0
  3  4  2  0  0  0  0
  3  7  1  0  0  0  0
  4  5  1  0  0  0  0
  4 28  1  0  0  0  0
  5  6  2  0  0  0  0
  6  7  1  0  0  0  0
  6 39  1  0  0  0  0
  7  8  1  0  0  0  0
  8  9  1  0  0  0  0
  8 40  1  0  0  0  0
  8 41  1  0  0  0  0
  9 10  1  0  0  0  0
  9 42  1  0  0  0  0
  9 43  1  0  0  0  0
 10 11  1  0  0  0  0
 10 44  1  0  0  0  0
 10 45  1  0  0  0  0
 11 12  1  0  0  0  0
 12 13  2  0  0  0  0
 12 17  1  0  0  0  0
 13 14  1  0  0  0  0
 13 46  1  0  0  0  0
 14 15  2  0  0  0  0
 14 47  1  0  0  0  0
 15 16  1  0  0  0  0
 15 48  1  0  0  0  0
 16 17  2  0  0  0  0
 16 27  1  0  0  0  0
 17 18  1  0  0  0  0
 18 19  1  0  0  0  0
 18 49  1  0  0  0  0
 19 20  2  0  0  0  0
 19 21  1  0  0  0  0
 21 22  1  0  0  0  0
 21 50  1  0  0  0  0
 22 23  1  0  0  0  0
 22 51  1  0  0  0  0
 22 52  1  0  0  0  0
 23 24  1  0  0  0  0
 23 53  1  0  0  0  0
 23 54  1  0  0  0  0
 24 25  1  0  0  0  0
 24 26  1  0  0  0  0
 24 55  1  0  0  0  0
 25 56  1  0  0  0  0
 25 57  1  0  0  0  0
 25 58  1  0  0  0  0
 26 59  1  0  0  0  0
 26 60  1  0  0  0  0
 26 61  1  0  0  0  0
 27 62  1  0  0  0  0
 27 63  1  0  0  0  0
 27 64  1  0  0  0  0
 28 29  2  0  0  0  0
 28 33  1  0  0  0  0
 29 30  1  0  0  0  0
 29 65  1  0  0  0  0
 30 31  2  0  0  0  0
 30 66  1  0  0  0  0
 31 32  1  0  0  0  0
 31 67  1  0  0  0  0
 32 33  2  0  0  0  0
 32 68  1  0  0  0  0
 33 69  1  0  0  0  0
M  END
