
 OpenBabel10072619503D

 20 20  0  0  0  0  0  0  0  0999 V2000
    1.4981    0.9308   -0.9050 C   0  0  0  0  0  0  0  0  0  0  0  0
    0.1120    0.8131   -0.7766 C   0  0  0  0  0  0  0  0  0  0  0  0
   -0.4207   -0.1308    0.0995 C   0  0  0  0  0  0  0  0  0  0  0  0
    0.4192   -0.9501    0.8520 C   0  0  0  0  0  0  0  0  0  0  0  0
    1.8044   -0.8238    0.7226 C   0  0  0  0  0  0  0  0  0  0  0  0
    2.3514    0.1068   -0.1662 C   0  0  0  0  0  0  0  0  0  0  0  0
    3.7369    0.2585   -0.2879 N   0  0  0  0  0  0  0  0  0  0  0  0
    4.4190   -0.5977   -0.9838 C   0  0  0  0  0  0  0  0  0  0  0  0
    3.9496   -1.6873   -1.6579 N   0  0  0  0  0  0  0  0  0  0  0  0
    5.7793   -0.4464   -1.0853 N   0  0  0  0  0  0  0  0  0  0  0  0
    6.3423   -0.9185   -2.2766 O   0  0  0  0  0  0  0  0  0  0  0  0
   -2.1271   -0.2802    0.2555 Cl  0  0  0  0  0  0  0  0  0  0  0  0
    1.9208    1.6728   -1.5766 H   0  0  0  0  0  0  0  0  0  0  0  0
   -0.5396    1.4636   -1.3531 H   0  0  0  0  0  0  0  0  0  0  0  0
    0.0069   -1.6788    1.5443 H   0  0  0  0  0  0  0  0  0  0  0  0
    2.4660   -1.4499    1.3156 H   0  0  0  0  0  0  0  0  0  0  0  0
    2.9548   -1.6608   -1.8412 H   0  0  0  0  0  0  0  0  0  0  0  0
    4.4879   -1.8484   -2.5016 H   0  0  0  0  0  0  0  0  0  0  0  0
    6.0728    0.4911   -0.8136 H   0  0  0  0  0  0  0  0  0  0  0  0
    6.8792   -1.6716   -1.9626 H   0  0  0  0  0  0  0  0  0  0  0  0
  1  2  2  0  0  0  0
  1  6  1  0  0  0  0
  1 13  1  0  0  0  0
  2  3  1  0  0  0  0
  2 14  1  0  0  0  0
  3  4  2  0  0  0  0
  3 12  1  0  0  0  0
  4  5  1  0  0  0  0
  4 15  1  0  0  0  0
  5  6  2  0  0  0  0
  5 16  1  0  0  0  0
  6  7  1  0  0  0  0
  7  8  2  3  0  0  0
  8  9  1  0  0  0  0
  8 10  1  0  0  0  0
  9 17  1  0  0  0  0
  9 18  1  0  0  0  0
 10 11  1  0  0  0  0
 10 19  1  0  0  0  0
 11 20  1  0  0  0  0
M  END
