
 OpenBabel10072619523D

103104  0  0  0  0  0  0  0  0999 V2000
    3.8381  -15.0587   -7.7003 C   0  0  0  0  0  0  0  0  0  0  0  0
    5.2501  -14.5941   -8.0239 C   0  0  0  0  0  0  0  0  0  0  0  0
    5.4568  -13.1266   -7.6484 C   0  0  0  0  0  0  0  0  0  0  0  0
    6.8759  -12.6559   -7.9772 C   0  0  0  0  0  0  0  0  0  0  0  0
    7.0717  -11.1858   -7.5999 C   0  0  0  0  0  0  0  0  0  0  0  0
    8.4817  -10.6949   -7.9386 C   0  0  0  0  0  0  0  0  0  0  0  0
    8.6617   -9.2251   -7.5504 C   0  0  0  0  0  0  0  0  0  0  0  0
   10.0573   -8.7089   -7.9094 C   0  0  0  0  0  0  0  0  0  0  0  0
   10.2269   -7.2463   -7.4945 C   0  0  0  0  0  0  0  0  0  0  0  0
   11.6048   -6.7034   -7.8692 C   0  0  0  0  0  0  0  0  0  0  0  0
   11.7745   -5.2615   -7.4031 C   0  0  0  0  0  0  0  0  0  0  0  0
   13.0790   -4.8101   -7.7777 O   0  0  0  0  0  0  0  0  0  0  0  0
   13.3284   -3.4970   -7.3067 C   0  0  0  0  0  0  0  0  0  0  0  0
   14.7186   -3.1435   -7.6578 N   0  3  0  0  0  0  0  0  0  0  0  0
   15.6646   -3.1121   -6.6964 C   0  0  0  0  0  0  0  0  0  0  0  0
   16.9743   -2.7906   -7.0177 C   0  0  0  0  0  0  0  0  0  0  0  0
   17.3048   -2.5310   -8.3444 C   0  0  0  0  0  0  0  0  0  0  0  0
   16.3438   -2.6249   -9.3558 C   0  0  0  0  0  0  0  0  0  0  0  0
   15.0302   -2.9034   -8.9542 C   0  0  0  0  0  0  0  0  0  0  0  0
   16.7272   -2.3063  -10.6670 N   0  0  0  0  0  0  0  0  0  0  0  0
   16.0042   -2.8596  -11.7876 C   0  0  0  0  0  0  0  0  0  0  0  0
   16.9775   -3.1107  -12.8256 N   0  0  0  0  0  0  0  0  0  0  0  0
   17.3548   -2.1597  -13.7739 C   0  0  0  0  0  0  0  0  0  0  0  0
   17.3164   -0.7738  -13.5793 C   0  0  0  0  0  0  0  0  0  0  0  0
   17.7773    0.0873  -14.5212 N   0  3  0  0  0  0  0  0  0  0  0  0
   18.3196   -0.3616  -15.6724 C   0  0  0  0  0  0  0  0  0  0  0  0
   18.4213   -1.7215  -15.9131 C   0  0  0  0  0  0  0  0  0  0  0  0
   17.9537   -2.6132  -14.9544 C   0  0  0  0  0  0  0  0  0  0  0  0
   17.7216    1.5393  -14.2585 C   0  0  0  0  0  0  0  0  0  0  0  0
   18.4739    1.8134  -13.0894 O   0  0  0  0  0  0  0  0  0  0  0  0
   18.5719    3.2185  -12.8439 C   0  0  0  0  0  0  0  0  0  0  0  0
   19.4358    3.4234  -11.6074 C   0  0  0  0  0  0  0  0  0  0  0  0
   19.5679    4.9000  -11.2414 C   0  0  0  0  0  0  0  0  0  0  0  0
   20.4737    5.0734  -10.0229 C   0  0  0  0  0  0  0  0  0  0  0  0
   20.5964    6.5382   -9.6065 C   0  0  0  0  0  0  0  0  0  0  0  0
   21.5487    6.6873   -8.4182 C   0  0  0  0  0  0  0  0  0  0  0  0
   21.6451    8.1426   -7.9621 C   0  0  0  0  0  0  0  0  0  0  0  0
   22.6070    8.2978   -6.7823 C   0  0  0  0  0  0  0  0  0  0  0  0
   22.6788    9.7541   -6.3211 C   0  0  0  0  0  0  0  0  0  0  0  0
   23.6359    9.9252   -5.1421 C   0  0  0  0  0  0  0  0  0  0  0  0
   23.6968   11.3763   -4.6910 C   0  0  0  0  0  0  0  0  0  0  0  0
    3.7121  -16.1102   -7.9773 H   0  0  0  0  0  0  0  0  0  0  0  0
    3.0956  -14.4716   -8.2506 H   0  0  0  0  0  0  0  0  0  0  0  0
    3.6283  -14.9620   -6.6301 H   0  0  0  0  0  0  0  0  0  0  0  0
    5.4373  -14.7347   -9.0950 H   0  0  0  0  0  0  0  0  0  0  0  0
    5.9677  -15.2221   -7.4828 H   0  0  0  0  0  0  0  0  0  0  0  0
    5.2646  -12.9919   -6.5768 H   0  0  0  0  0  0  0  0  0  0  0  0
    4.7310  -12.5051   -8.1871 H   0  0  0  0  0  0  0  0  0  0  0  0
    7.0690  -12.7901   -9.0484 H   0  0  0  0  0  0  0  0  0  0  0  0
    7.6031  -13.2744   -7.4373 H   0  0  0  0  0  0  0  0  0  0  0  0
    6.8868  -11.0567   -6.5264 H   0  0  0  0  0  0  0  0  0  0  0  0
    6.3341  -10.5712   -8.1305 H   0  0  0  0  0  0  0  0  0  0  0  0
    8.6651  -10.8168   -9.0131 H   0  0  0  0  0  0  0  0  0  0  0  0
    9.2225  -11.3077   -7.4106 H   0  0  0  0  0  0  0  0  0  0  0  0
    8.4931   -9.1088   -6.4728 H   0  0  0  0  0  0  0  0  0  0  0  0
    7.9060   -8.6163   -8.0617 H   0  0  0  0  0  0  0  0  0  0  0  0
   10.2189   -8.8079   -8.9892 H   0  0  0  0  0  0  0  0  0  0  0  0
   10.8169   -9.3221   -7.4102 H   0  0  0  0  0  0  0  0  0  0  0  0
   10.0800   -7.1570   -6.4114 H   0  0  0  0  0  0  0  0  0  0  0  0
    9.4523   -6.6364   -7.9748 H   0  0  0  0  0  0  0  0  0  0  0  0
   11.7534   -6.7579   -8.9548 H   0  0  0  0  0  0  0  0  0  0  0  0
   12.3931   -7.3240   -7.4249 H   0  0  0  0  0  0  0  0  0  0  0  0
   11.6661   -5.2054   -6.3135 H   0  0  0  0  0  0  0  0  0  0  0  0
   11.0206   -4.6177   -7.8714 H   0  0  0  0  0  0  0  0  0  0  0  0
   13.2063   -3.4351   -6.2202 H   0  0  0  0  0  0  0  0  0  0  0  0
   12.6678   -2.7716   -7.7946 H   0  0  0  0  0  0  0  0  0  0  0  0
   15.3683   -3.3409   -5.6760 H   0  0  0  0  0  0  0  0  0  0  0  0
   17.7378   -2.7491   -6.2434 H   0  0  0  0  0  0  0  0  0  0  0  0
   18.3369   -2.2739   -8.5838 H   0  0  0  0  0  0  0  0  0  0  0  0
   14.2059   -2.9579   -9.6566 H   0  0  0  0  0  0  0  0  0  0  0  0
   17.7215   -2.4845  -10.8186 H   0  0  0  0  0  0  0  0  0  0  0  0
   15.2051   -2.1857  -12.1168 H   0  0  0  0  0  0  0  0  0  0  0  0
   15.5458   -3.8200  -11.5248 H   0  0  0  0  0  0  0  0  0  0  0  0
   16.8530   -4.0385  -13.2331 H   0  0  0  0  0  0  0  0  0  0  0  0
   16.9439   -0.3270  -12.6633 H   0  0  0  0  0  0  0  0  0  0  0  0
   18.6873    0.3678  -16.3894 H   0  0  0  0  0  0  0  0  0  0  0  0
   18.8758   -2.0887  -16.8305 H   0  0  0  0  0  0  0  0  0  0  0  0
   18.0691   -3.6812  -15.1419 H   0  0  0  0  0  0  0  0  0  0  0  0
   16.6676    1.8031  -14.1205 H   0  0  0  0  0  0  0  0  0  0  0  0
   18.1333    2.0746  -15.1205 H   0  0  0  0  0  0  0  0  0  0  0  0
   17.5687    3.6290  -12.6848 H   0  0  0  0  0  0  0  0  0  0  0  0
   19.0296    3.7119  -13.7088 H   0  0  0  0  0  0  0  0  0  0  0  0
   20.4273    2.9880  -11.7850 H   0  0  0  0  0  0  0  0  0  0  0  0
   19.0085    2.8626  -10.7667 H   0  0  0  0  0  0  0  0  0  0  0  0
   18.5767    5.3187  -11.0305 H   0  0  0  0  0  0  0  0  0  0  0  0
   19.9809    5.4581  -12.0903 H   0  0  0  0  0  0  0  0  0  0  0  0
   21.4689    4.6730  -10.2502 H   0  0  0  0  0  0  0  0  0  0  0  0
   20.0753    4.4895   -9.1845 H   0  0  0  0  0  0  0  0  0  0  0  0
   19.6070    6.9299   -9.3410 H   0  0  0  0  0  0  0  0  0  0  0  0
   20.9652    7.1346  -10.4497 H   0  0  0  0  0  0  0  0  0  0  0  0
   22.5440    6.3223   -8.7001 H   0  0  0  0  0  0  0  0  0  0  0  0
   21.2003    6.0638   -7.5858 H   0  0  0  0  0  0  0  0  0  0  0  0
   20.6494    8.5008   -7.6727 H   0  0  0  0  0  0  0  0  0  0  0  0
   21.9845    8.7675   -8.7972 H   0  0  0  0  0  0  0  0  0  0  0  0
   23.6068    7.9533   -7.0736 H   0  0  0  0  0  0  0  0  0  0  0  0
   22.2757    7.6642   -5.9506 H   0  0  0  0  0  0  0  0  0  0  0  0
   21.6773   10.0960   -6.0322 H   0  0  0  0  0  0  0  0  0  0  0  0
   23.0076   10.3868   -7.1547 H   0  0  0  0  0  0  0  0  0  0  0  0
   24.6414    9.5930   -5.4259 H   0  0  0  0  0  0  0  0  0  0  0  0
   23.3110    9.2996   -4.3025 H   0  0  0  0  0  0  0  0  0  0  0  0
   24.0472   12.0235   -5.5015 H   0  0  0  0  0  0  0  0  0  0  0  0
   24.3854   11.4842   -3.8474 H   0  0  0  0  0  0  0  0  0  0  0  0
   22.7103   11.7287   -4.3724 H   0  0  0  0  0  0  0  0  0  0  0  0
  1  2  1  0  0  0  0
  1 42  1  0  0  0  0
  1 43  1  0  0  0  0
  1 44  1  0  0  0  0
  2  3  1  0  0  0  0
  2 45  1  0  0  0  0
  2 46  1  0  0  0  0
  3  4  1  0  0  0  0
  3 47  1  0  0  0  0
  3 48  1  0  0  0  0
  4  5  1  0  0  0  0
  4 49  1  0  0  0  0
  4 50  1  0  0  0  0
  5  6  1  0  0  0  0
  5 51  1  0  0  0  0
  5 52  1  0  0  0  0
  6  7  1  0  0  0  0
  6 53  1  0  0  0  0
  6 54  1  0  0  0  0
  7  8  1  0  0  0  0
  7 55  1  0  0  0  0
  7 56  1  0  0  0  0
  8  9  1  0  0  0  0
  8 57  1  0  0  0  0
  8 58  1  0  0  0  0
  9 10  1  0  0  0  0
  9 59  1  0  0  0  0
  9 60  1  0  0  0  0
 10 11  1  0  0  0  0
 10 61  1  0  0  0  0
 10 62  1  0  0  0  0
 11 12  1  0  0  0  0
 11 63  1  0  0  0  0
 11 64  1  0  0  0  0
 12 13  1  0  0  0  0
 13 14  1  0  0  0  0
 13 65  1  0  0  0  0
 13 66  1  0  0  0  0
 14 15  2  0  0  0  0
 14 19  1  0  0  0  0
 15 16  1  0  0  0  0
 15 67  1  0  0  0  0
 16 17  2  0  0  0  0
 16 68  1  0  0  0  0
 17 18  1  0  0  0  0
 17 69  1  0  0  0  0
 18 19  2  0  0  0  0
 18 20  1  0  0  0  0
 19 70  1  0  0  0  0
 20 21  1  0  0  0  0
 20 71  1  0  0  0  0
 21 22  1  0  0  0  0
 21 72  1  0  0  0  0
 21 73  1  0  0  0  0
 22 23  1  0  0  0  0
 22 74  1  0  0  0  0
 23 24  2  0  0  0  0
 23 28  1  0  0  0  0
 24 25  1  0  0  0  0
 24 75  1  0  0  0  0
 25 26  2  0  0  0  0
 25 29  1  0  0  0  0
 26 27  1  0  0  0  0
 26 76  1  0  0  0  0
 27 28  2  0  0  0  0
 27 77  1  0  0  0  0
 28 78  1  0  0  0  0
 29 30  1  0  0  0  0
 29 79  1  0  0  0  0
 29 80  1  0  0  0  0
 30 31  1  0  0  0  0
 31 32  1  0  0  0  0
 31 81  1  0  0  0  0
 31 82  1  0  0  0  0
 32 33  1  0  0  0  0
 32 83  1  0  0  0  0
 32 84  1  0  0  0  0
 33 34  1  0  0  0  0
 33 85  1  0  0  0  0
 33 86  1  0  0  0  0
 34 35  1  0  0  0  0
 34 87  1  0  0  0  0
 34 88  1  0  0  0  0
 35 36  1  0  0  0  0
 35 89  1  0  0  0  0
 35 90  1  0  0  0  0
 36 37  1  0  0  0  0
 36 91  1  0  0  0  0
 36 92  1  0  0  0  0
 37 38  1  0  0  0  0
 37 93  1  0  0  0  0
 37 94  1  0  0  0  0
 38 39  1  0  0  0  0
 38 95  1  0  0  0  0
 38 96  1  0  0  0  0
 39 40  1  0  0  0  0
 39 97  1  0  0  0  0
 39 98  1  0  0  0  0
 40 41  1  0  0  0  0
 40 99  1  0  0  0  0
 40100  1  0  0  0  0
 41101  1  0  0  0  0
 41102  1  0  0  0  0
 41103  1  0  0  0  0
M  CHG  2  14   1  25   1
M  END
