
 OpenBabel10072620113D

 34 35  0  0  0  0  0  0  0  0999 V2000
    0.4115   -0.5877   -0.3779 C   0  0  0  0  0  0  0  0  0  0  0  0
    1.9188   -0.7210   -0.1752 C   0  0  0  0  0  0  0  0  0  0  0  0
    2.6410   -1.0423   -1.4424 N   0  0  0  0  0  0  0  0  0  0  0  0
    2.7805   -2.3960   -1.8491 C   0  0  0  0  0  0  0  0  0  0  0  0
    3.5463   -2.6675   -2.9341 C   0  0  0  0  0  0  0  0  0  0  0  0
    4.2133   -1.6206   -3.7036 C   0  0  0  0  0  0  0  0  0  0  0  0
    4.9438   -1.8626   -4.6601 O   0  0  0  0  0  0  0  0  0  0  0  0
    3.9596   -0.3509   -3.2820 N   0  0  0  0  0  0  0  0  0  0  0  0
    3.1993    0.0083   -2.1973 C   0  0  0  0  0  0  0  0  0  0  0  0
    3.0567    1.6623   -1.9267 S   0  0  0  0  0  0  0  0  0  0  0  0
    3.7111   -4.1021   -3.2465 C   0  0  0  0  0  0  0  0  0  0  0  0
    2.7308   -4.7735   -3.7497 N   0  0  0  0  0  0  0  0  0  0  0  0
    2.6994   -6.1957   -3.4343 C   0  0  0  0  0  0  0  0  0  0  0  0
    1.4562   -6.4386   -2.6100 C   0  0  0  0  0  0  0  0  0  0  0  0
    0.7460   -7.6410   -2.6120 C   0  0  0  0  0  0  0  0  0  0  0  0
   -0.4153   -7.7519   -1.8457 C   0  0  0  0  0  0  0  0  0  0  0  0
   -0.8479   -6.6731   -1.0806 C   0  0  0  0  0  0  0  0  0  0  0  0
   -0.1067   -5.5027   -1.0983 C   0  0  0  0  0  0  0  0  0  0  0  0
    1.0030   -5.4269   -1.8428 N   0  3  0  0  0  0  0  0  0  0  0  0
    2.1547   -3.2167   -1.1138 O   0  5  0  0  0  0  0  0  0  0  0  0
   -0.0957   -0.5022    0.5880 H   0  0  0  0  0  0  0  0  0  0  0  0
   -0.0183   -1.4481   -0.8993 H   0  0  0  0  0  0  0  0  0  0  0  0
    0.1616    0.3012   -0.9663 H   0  0  0  0  0  0  0  0  0  0  0  0
    2.1492   -1.4718    0.5941 H   0  0  0  0  0  0  0  0  0  0  0  0
    2.2985    0.2152    0.2504 H   0  0  0  0  0  0  0  0  0  0  0  0
    4.3893    0.3889   -3.8148 H   0  0  0  0  0  0  0  0  0  0  0  0
    4.6253   -4.5635   -2.8303 H   0  0  0  0  0  0  0  0  0  0  0  0
    3.5705   -6.5471   -2.8661 H   0  0  0  0  0  0  0  0  0  0  0  0
    2.6507   -6.7697   -4.3665 H   0  0  0  0  0  0  0  0  0  0  0  0
    1.0741   -8.4800   -3.2170 H   0  0  0  0  0  0  0  0  0  0  0  0
   -0.9825   -8.6800   -1.8539 H   0  0  0  0  0  0  0  0  0  0  0  0
   -1.7507   -6.7390   -0.4790 H   0  0  0  0  0  0  0  0  0  0  0  0
   -0.3628   -4.6101   -0.5393 H   0  0  0  0  0  0  0  0  0  0  0  0
    1.5331   -4.5212   -1.8106 H   0  0  0  0  0  0  0  0  0  0  0  0
  1  2  1  0  0  0  0
  1 21  1  0  0  0  0
  1 22  1  0  0  0  0
  1 23  1  0  0  0  0
  2  3  1  0  0  0  0
  2 24  1  0  0  0  0
  2 25  1  0  0  0  0
  3  4  1  0  0  0  0
  3  9  1  0  0  0  0
  4  5  2  0  0  0  0
  4 20  1  0  0  0  0
  5  6  1  0  0  0  0
  5 11  1  0  0  0  0
  6  7  2  0  0  0  0
  6  8  1  0  0  0  0
  8  9  1  0  0  0  0
  8 26  1  0  0  0  0
  9 10  2  0  0  0  0
 11 12  2  3  0  0  0
 11 27  1  0  0  0  0
 12 13  1  0  0  0  0
 13 14  1  0  0  0  0
 13 28  1  0  0  0  0
 13 29  1  0  0  0  0
 14 15  2  0  0  0  0
 14 19  1  0  0  0  0
 15 16  1  0  0  0  0
 15 30  1  0  0  0  0
 16 17  2  0  0  0  0
 16 31  1  0  0  0  0
 17 18  1  0  0  0  0
 17 32  1  0  0  0  0
 18 19  2  0  0  0  0
 18 33  1  0  0  0  0
 19 34  1  0  0  0  0
M  CHG  2  19   1  20  -1
M  END
