
 OpenBabel10072620233D

 43 44  0  0  0  0  0  0  0  0999 V2000
    0.4493    0.8296   -0.2957 C   0  0  0  0  0  0  0  0  0  0  0  0
    1.4918   -0.1067   -0.5580 O   0  0  0  0  0  0  0  0  0  0  0  0
    2.4001    0.2426   -1.5203 C   0  0  0  0  0  0  0  0  0  0  0  0
    2.0676    1.0611   -2.6071 C   0  0  0  0  0  0  0  0  0  0  0  0
    3.0331    1.4235   -3.5575 C   0  0  0  0  0  0  0  0  0  0  0  0
    4.3324    0.9206   -3.4661 C   0  0  0  0  0  0  0  0  0  0  0  0
    4.6625    0.1034   -2.3811 C   0  0  0  0  0  0  0  0  0  0  0  0
    3.7049   -0.2587   -1.4189 C   0  0  0  0  0  0  0  0  0  0  0  0
    4.2361   -1.0870   -0.3091 C   0  0  0  0  0  0  0  0  0  0  0  0
    3.7274   -2.0613    0.3852 N   0  0  0  0  0  0  0  0  0  0  0  0
    2.4619   -2.4874    0.1438 N   0  0  0  0  0  0  0  0  0  0  0  0
    1.8280   -3.3986    0.9967 C   0  0  0  0  0  0  0  0  0  0  0  0
    2.5906   -4.2098    2.2530 S   0  0  0  0  0  0  0  0  0  0  0  0
    0.5070   -3.5734    0.5862 N   0  0  0  0  0  0  0  0  0  0  0  0
   -0.6190   -4.0107    1.3146 C   0  0  0  0  0  0  0  0  0  0  0  0
   -0.7413   -3.8800    2.6989 C   0  0  0  0  0  0  0  0  0  0  0  0
   -1.9205   -4.2597    3.3471 C   0  0  0  0  0  0  0  0  0  0  0  0
   -2.9847   -4.7795    2.6151 C   0  0  0  0  0  0  0  0  0  0  0  0
   -2.8768   -4.9075    1.2332 C   0  0  0  0  0  0  0  0  0  0  0  0
   -1.7034   -4.5123    0.5855 C   0  0  0  0  0  0  0  0  0  0  0  0
    5.3826    1.1726   -4.3062 O   0  0  0  0  0  0  0  0  0  0  0  0
    5.0689    1.4821   -5.6595 C   0  0  0  0  0  0  0  0  0  0  0  0
    2.6661    2.2321   -4.5994 O   0  0  0  0  0  0  0  0  0  0  0  0
    2.3234    3.5448   -4.1558 C   0  0  0  0  0  0  0  0  0  0  0  0
    0.0141    0.5813    0.6768 H   0  0  0  0  0  0  0  0  0  0  0  0
   -0.3412    0.7444   -1.0478 H   0  0  0  0  0  0  0  0  0  0  0  0
    0.8304    1.8547   -0.2396 H   0  0  0  0  0  0  0  0  0  0  0  0
    1.0533    1.4224   -2.7410 H   0  0  0  0  0  0  0  0  0  0  0  0
    5.6849   -0.2651   -2.3037 H   0  0  0  0  0  0  0  0  0  0  0  0
    5.2847   -0.8538   -0.0508 H   0  0  0  0  0  0  0  0  0  0  0  0
    1.8589   -1.8603   -0.3800 H   0  0  0  0  0  0  0  0  0  0  0  0
    0.3865   -3.5273   -0.4169 H   0  0  0  0  0  0  0  0  0  0  0  0
    0.0524   -3.4510    3.3013 H   0  0  0  0  0  0  0  0  0  0  0  0
   -2.0035   -4.1445    4.4249 H   0  0  0  0  0  0  0  0  0  0  0  0
   -3.8961   -5.0823    3.1229 H   0  0  0  0  0  0  0  0  0  0  0  0
   -3.7034   -5.3180    0.6591 H   0  0  0  0  0  0  0  0  0  0  0  0
   -1.6413   -4.6287   -0.4926 H   0  0  0  0  0  0  0  0  0  0  0  0
    5.9656    1.2937   -6.2585 H   0  0  0  0  0  0  0  0  0  0  0  0
    4.8254    2.5436   -5.7644 H   0  0  0  0  0  0  0  0  0  0  0  0
    4.2720    0.8434   -6.0555 H   0  0  0  0  0  0  0  0  0  0  0  0
    2.4253    4.2215   -5.0087 H   0  0  0  0  0  0  0  0  0  0  0  0
    2.9860    3.9041   -3.3601 H   0  0  0  0  0  0  0  0  0  0  0  0
    1.2816    3.5738   -3.8247 H   0  0  0  0  0  0  0  0  0  0  0  0
  1  2  1  0  0  0  0
  1 25  1  0  0  0  0
  1 26  1  0  0  0  0
  1 27  1  0  0  0  0
  2  3  1  0  0  0  0
  3  4  2  0  0  0  0
  3  8  1  0  0  0  0
  4  5  1  0  0  0  0
  4 28  1  0  0  0  0
  5  6  2  0  0  0  0
  5 23  1  0  0  0  0
  6  7  1  0  0  0  0
  6 21  1  0  0  0  0
  7  8  2  0  0  0  0
  7 29  1  0  0  0  0
  8  9  1  0  0  0  0
  9 10  2  0  0  0  0
  9 30  1  0  0  0  0
 10 11  1  0  0  0  0
 11 12  1  0  0  0  0
 11 31  1  0  0  0  0
 12 13  2  0  0  0  0
 12 14  1  0  0  0  0
 14 15  1  0  0  0  0
 14 32  1  0  0  0  0
 15 16  2  0  0  0  0
 15 20  1  0  0  0  0
 16 17  1  0  0  0  0
 16 33  1  0  0  0  0
 17 18  2  0  0  0  0
 17 34  1  0  0  0  0
 18 19  1  0  0  0  0
 18 35  1  0  0  0  0
 19 20  2  0  0  0  0
 19 36  1  0  0  0  0
 20 37  1  0  0  0  0
 21 22  1  0  0  0  0
 22 38  1  0  0  0  0
 22 39  1  0  0  0  0
 22 40  1  0  0  0  0
 23 24  1  0  0  0  0
 24 41  1  0  0  0  0
 24 42  1  0  0  0  0
 24 43  1  0  0  0  0
M  END
