
 OpenBabel10072619513D

 21 21  0  0  0  0  0  0  0  0999 V2000
    2.1468   -0.6999    0.6515 C   0  0  0  0  0  0  0  0  0  0  0  0
    2.0827    0.4415   -0.1936 O   0  0  0  0  0  0  0  0  0  0  0  0
    2.9047    0.4792   -1.2848 C   0  0  0  0  0  0  0  0  0  0  0  0
    2.7133    1.5300   -2.1955 C   0  0  0  0  0  0  0  0  0  0  0  0
    3.5229    1.6560   -3.3325 C   0  0  0  0  0  0  0  0  0  0  0  0
    4.5301    0.7240   -3.5597 C   0  0  0  0  0  0  0  0  0  0  0  0
    4.7359   -0.3242   -2.6674 C   0  0  0  0  0  0  0  0  0  0  0  0
    3.9269   -0.4449   -1.5322 C   0  0  0  0  0  0  0  0  0  0  0  0
    5.6260    0.8795   -5.0921 Br  0  0  0  0  0  0  0  0  0  0  0  0
    1.4216    2.6976   -1.8952 S   0  0  0  0  0  0  0  0  0  0  0  0
    0.1461    2.0196   -1.9088 O   0  0  0  0  0  0  0  0  0  0  0  0
    1.8370    3.5990   -0.8459 O   0  0  0  0  0  0  0  0  0  0  0  0
    1.3815    3.6601   -3.2824 N   0  0  0  0  0  0  0  0  0  0  0  0
    3.1114   -0.7513    1.1666 H   0  0  0  0  0  0  0  0  0  0  0  0
    1.9456   -1.6188    0.0910 H   0  0  0  0  0  0  0  0  0  0  0  0
    1.3677   -0.5977    1.4132 H   0  0  0  0  0  0  0  0  0  0  0  0
    3.3764    2.4691   -4.0369 H   0  0  0  0  0  0  0  0  0  0  0  0
    5.5252   -1.0519   -2.8417 H   0  0  0  0  0  0  0  0  0  0  0  0
    4.1271   -1.2707   -0.8563 H   0  0  0  0  0  0  0  0  0  0  0  0
    0.4668    3.5488   -3.7241 H   0  0  0  0  0  0  0  0  0  0  0  0
    1.5847    4.6241   -3.0123 H   0  0  0  0  0  0  0  0  0  0  0  0
  1  2  1  0  0  0  0
  1 14  1  0  0  0  0
  1 15  1  0  0  0  0
  1 16  1  0  0  0  0
  2  3  1  0  0  0  0
  3  4  2  0  0  0  0
  3  8  1  0  0  0  0
  4  5  1  0  0  0  0
  4 10  1  0  0  0  0
  5  6  2  0  0  0  0
  5 17  1  0  0  0  0
  6  7  1  0  0  0  0
  6  9  1  0  0  0  0
  7  8  2  0  0  0  0
  7 18  1  0  0  0  0
  8 19  1  0  0  0  0
 10 11  2  0  0  0  0
 10 12  2  0  0  0  0
 10 13  1  0  0  0  0
 13 20  1  0  0  0  0
 13 21  1  0  0  0  0
M  END
