
 OpenBabel10072619523D

 42 44  0  0  1  0  0  0  0  0999 V2000
    2.7803    0.8956   -0.4881 C   0  0  0  0  0  0  0  0  0  0  0  0
    2.4949   -0.5282   -0.5905 N   0  0  0  0  0  0  0  0  0  0  0  0
    2.8722   -1.2683    0.6223 C   0  0  3  0  0  0  0  0  0  0  0  0
    4.4186   -1.5399    0.7137 C   0  0  0  0  0  0  0  0  0  0  0  0
    4.8919   -2.3250   -0.4856 N   0  0  0  0  0  0  0  0  0  0  0  0
    4.3183   -3.9554   -0.4690 S   0  0  0  0  0  0  0  0  0  0  0  0
    4.2551   -4.4573   -1.8220 O   0  0  0  0  0  0  0  0  0  0  0  0
    4.9596   -4.6604    0.6202 O   0  0  0  0  0  0  0  0  0  0  0  0
    2.6428   -3.7308    0.0701 C   0  0  0  0  0  0  0  0  0  0  0  0
    2.0823   -2.5615    0.5495 C   0  0  0  0  0  0  0  0  0  0  0  0
    0.7133   -2.7723    0.9065 C   0  0  0  0  0  0  0  0  0  0  0  0
    0.3057   -4.0778    0.6886 C   0  0  0  0  0  0  0  0  0  0  0  0
    1.5779   -5.0453    0.0637 S   0  0  0  0  0  0  0  0  0  0  0  0
   -1.2570   -4.8948    0.9210 S   0  0  0  0  0  0  0  0  0  0  0  0
   -1.0041   -5.9602    1.8604 O   0  0  0  0  0  0  0  0  0  0  0  0
   -2.1951   -3.8258    1.1705 O   0  0  0  0  0  0  0  0  0  0  0  0
   -1.6749   -5.5885   -0.5479 N   0  0  0  0  0  0  0  0  0  0  0  0
    6.2827   -2.2120   -0.8351 C   0  0  0  0  0  0  0  0  0  0  0  0
    7.2988   -2.3705    0.1157 C   0  0  0  0  0  0  0  0  0  0  0  0
    8.6374   -2.2836   -0.2720 C   0  0  0  0  0  0  0  0  0  0  0  0
    8.9500   -2.0640   -1.6162 C   0  0  0  0  0  0  0  0  0  0  0  0
    7.9406   -1.9462   -2.5711 C   0  0  0  0  0  0  0  0  0  0  0  0
    6.6056   -2.0315   -2.1810 C   0  0  0  0  0  0  0  0  0  0  0  0
    9.7233   -2.3915    0.5526 O   0  0  0  0  0  0  0  0  0  0  0  0
    9.4700   -2.6673    1.9247 C   0  0  0  0  0  0  0  0  0  0  0  0
    2.4432    1.3959   -1.4012 H   0  0  0  0  0  0  0  0  0  0  0  0
    3.8500    1.0952   -0.3777 H   0  0  0  0  0  0  0  0  0  0  0  0
    2.2418    1.3484    0.3504 H   0  0  0  0  0  0  0  0  0  0  0  0
    3.0166   -0.9133   -1.3816 H   0  0  0  0  0  0  0  0  0  0  0  0
    2.5522   -0.7288    1.5232 H   0  0  0  0  0  0  0  0  0  0  0  0
    4.6536   -2.0842    1.6375 H   0  0  0  0  0  0  0  0  0  0  0  0
    4.9543   -0.5843    0.7578 H   0  0  0  0  0  0  0  0  0  0  0  0
    0.0467   -2.0053    1.2873 H   0  0  0  0  0  0  0  0  0  0  0  0
   -1.0308   -6.3279   -0.8241 H   0  0  0  0  0  0  0  0  0  0  0  0
   -1.8752   -4.8942   -1.2652 H   0  0  0  0  0  0  0  0  0  0  0  0
    7.0300   -2.5725    1.1457 H   0  0  0  0  0  0  0  0  0  0  0  0
    9.9921   -1.9997   -1.9222 H   0  0  0  0  0  0  0  0  0  0  0  0
    8.1970   -1.7951   -3.6163 H   0  0  0  0  0  0  0  0  0  0  0  0
    5.8216   -1.9578   -2.9300 H   0  0  0  0  0  0  0  0  0  0  0  0
   10.4354   -2.7234    2.4370 H   0  0  0  0  0  0  0  0  0  0  0  0
    8.9690   -3.6334    2.0465 H   0  0  0  0  0  0  0  0  0  0  0  0
    8.8939   -1.8605    2.3904 H   0  0  0  0  0  0  0  0  0  0  0  0
  1  2  1  0  0  0  0
  1 26  1  0  0  0  0
  1 27  1  0  0  0  0
  1 28  1  0  0  0  0
  2  3  1  0  0  0  0
  2 29  1  0  0  0  0
  3  4  1  0  0  0  0
  3 10  1  0  0  0  0
  3 30  1  0  0  0  0
  4  5  1  0  0  0  0
  4 31  1  0  0  0  0
  4 32  1  0  0  0  0
  5  6  1  0  0  0  0
  5 18  1  0  0  0  0
  6  7  2  0  0  0  0
  6  8  2  0  0  0  0
  6  9  1  0  0  0  0
  9 10  2  0  0  0  0
  9 13  1  0  0  0  0
 10 11  1  0  0  0  0
 11 12  2  0  0  0  0
 11 33  1  0  0  0  0
 12 13  1  0  0  0  0
 12 14  1  0  0  0  0
 14 15  2  0  0  0  0
 14 16  2  0  0  0  0
 14 17  1  0  0  0  0
 17 34  1  0  0  0  0
 17 35  1  0  0  0  0
 18 19  2  0  0  0  0
 18 23  1  0  0  0  0
 19 20  1  0  0  0  0
 19 36  1  0  0  0  0
 20 21  2  0  0  0  0
 20 24  1  0  0  0  0
 21 22  1  0  0  0  0
 21 37  1  0  0  0  0
 22 23  2  0  0  0  0
 22 38  1  0  0  0  0
 23 39  1  0  0  0  0
 24 25  1  0  0  0  0
 25 40  1  0  0  0  0
 25 41  1  0  0  0  0
 25 42  1  0  0  0  0
M  END
