
 OpenBabel10072616323D

 43 45  0  0  0  0  0  0  0  0999 V2000
    0.6744    1.5722   -0.6558 C   0  0  0  0  0  0  0  0  0  0  0  0
    0.8265    0.0741   -0.4908 C   0  0  0  0  0  0  0  0  0  0  0  0
   -0.5240   -0.3538    0.0685 C   0  0  0  0  0  0  0  0  0  0  0  0
   -1.0488    0.8370    0.7930 N   0  0  0  0  0  0  0  0  0  0  0  0
   -0.0891    1.9550    0.6013 C   0  0  0  0  0  0  0  0  0  0  0  0
   -1.5582    0.6119    2.3967 S   0  0  0  0  0  0  0  0  0  0  0  0
   -0.4900   -0.0645    3.1023 O   0  0  0  0  0  0  0  0  0  0  0  0
   -2.0957    1.8680    2.8747 O   0  0  0  0  0  0  0  0  0  0  0  0
   -2.9185   -0.5109    2.2069 C   0  0  0  0  0  0  0  0  0  0  0  0
   -2.8196   -1.8219    2.6708 C   0  0  0  0  0  0  0  0  0  0  0  0
   -3.9064   -2.6912    2.5247 C   0  0  0  0  0  0  0  0  0  0  0  0
   -5.0920   -2.2570    1.9239 C   0  0  0  0  0  0  0  0  0  0  0  0
   -5.1773   -0.9309    1.4720 C   0  0  0  0  0  0  0  0  0  0  0  0
   -4.0964   -0.0563    1.6128 C   0  0  0  0  0  0  0  0  0  0  0  0
   -6.2297   -3.0711    1.7369 N   0  0  0  0  0  0  0  0  0  0  0  0
   -6.3846   -4.4087    2.0801 C   0  0  0  0  0  0  0  0  0  0  0  0
   -5.5243   -5.0950    2.6146 O   0  0  0  0  0  0  0  0  0  0  0  0
   -7.6497   -4.8559    1.7221 N   0  0  0  0  0  0  0  0  0  0  0  0
   -8.1937   -6.1462    1.9030 C   0  0  0  0  0  0  0  0  0  0  0  0
   -7.5226   -7.2026    2.5210 C   0  0  0  0  0  0  0  0  0  0  0  0
   -8.1380   -8.4514    2.6601 C   0  0  0  0  0  0  0  0  0  0  0  0
   -9.4303   -8.6550    2.1836 C   0  0  0  0  0  0  0  0  0  0  0  0
  -10.1094   -7.6098    1.5647 C   0  0  0  0  0  0  0  0  0  0  0  0
   -9.4943   -6.3624    1.4261 C   0  0  0  0  0  0  0  0  0  0  0  0
    0.0788    1.7967   -1.5486 H   0  0  0  0  0  0  0  0  0  0  0  0
    1.6333    2.0907   -0.7393 H   0  0  0  0  0  0  0  0  0  0  0  0
    1.6188   -0.1459    0.2349 H   0  0  0  0  0  0  0  0  0  0  0  0
    1.0708   -0.4353   -1.4270 H   0  0  0  0  0  0  0  0  0  0  0  0
   -0.4180   -1.2395    0.7003 H   0  0  0  0  0  0  0  0  0  0  0  0
   -1.2228   -0.5914   -0.7411 H   0  0  0  0  0  0  0  0  0  0  0  0
    0.5987    2.0303    1.4513 H   0  0  0  0  0  0  0  0  0  0  0  0
   -0.6183    2.9034    0.4767 H   0  0  0  0  0  0  0  0  0  0  0  0
   -1.9105   -2.1794    3.1495 H   0  0  0  0  0  0  0  0  0  0  0  0
   -3.7929   -3.7036    2.9008 H   0  0  0  0  0  0  0  0  0  0  0  0
   -6.0857   -0.5575    1.0057 H   0  0  0  0  0  0  0  0  0  0  0  0
   -4.1756    0.9711    1.2639 H   0  0  0  0  0  0  0  0  0  0  0  0
   -7.0211   -2.6222    1.3052 H   0  0  0  0  0  0  0  0  0  0  0  0
   -8.2529   -4.1925    1.2644 H   0  0  0  0  0  0  0  0  0  0  0  0
   -6.5155   -7.0924    2.9099 H   0  0  0  0  0  0  0  0  0  0  0  0
   -7.6004   -9.2639    3.1428 H   0  0  0  0  0  0  0  0  0  0  0  0
   -9.9047   -9.6263    2.2956 H   0  0  0  0  0  0  0  0  0  0  0  0
  -11.1175   -7.7642    1.1890 H   0  0  0  0  0  0  0  0  0  0  0  0
  -10.0490   -5.5656    0.9383 H   0  0  0  0  0  0  0  0  0  0  0  0
  1  2  1  0  0  0  0
  1  5  1  0  0  0  0
  1 25  1  0  0  0  0
  1 26  1  0  0  0  0
  2  3  1  0  0  0  0
  2 27  1  0  0  0  0
  2 28  1  0  0  0  0
  3  4  1  0  0  0  0
  3 29  1  0  0  0  0
  3 30  1  0  0  0  0
  4  5  1  0  0  0  0
  4  6  1  0  0  0  0
  5 31  1  0  0  0  0
  5 32  1  0  0  0  0
  6  7  2  0  0  0  0
  6  8  2  0  0  0  0
  6  9  1  0  0  0  0
  9 10  2  0  0  0  0
  9 14  1  0  0  0  0
 10 11  1  0  0  0  0
 10 33  1  0  0  0  0
 11 12  2  0  0  0  0
 11 34  1  0  0  0  0
 12 13  1  0  0  0  0
 12 15  1  0  0  0  0
 13 14  2  0  0  0  0
 13 35  1  0  0  0  0
 14 36  1  0  0  0  0
 15 16  1  0  0  0  0
 15 37  1  0  0  0  0
 16 17  2  0  0  0  0
 16 18  1  0  0  0  0
 18 19  1  0  0  0  0
 18 38  1  0  0  0  0
 19 20  2  0  0  0  0
 19 24  1  0  0  0  0
 20 21  1  0  0  0  0
 20 39  1  0  0  0  0
 21 22  2  0  0  0  0
 21 40  1  0  0  0  0
 22 23  1  0  0  0  0
 22 41  1  0  0  0  0
 23 24  2  0  0  0  0
 23 42  1  0  0  0  0
 24 43  1  0  0  0  0
M  END
