
 OpenBabel10072619473D

 87 88  0  0  1  0  0  0  0  0999 V2000
    5.5030    2.6202    2.2901 C   0  0  0  0  0  0  0  0  0  0  0  0
    5.0542    1.2200    1.8675 C   0  0  0  0  0  0  0  0  0  0  0  0
    6.0074    0.1719    2.4459 C   0  0  0  0  0  0  0  0  0  0  0  0
    3.6063    0.9342    2.3155 C   0  0  0  0  0  0  0  0  0  0  0  0
    2.6165    1.8172    1.6764 N   0  0  0  0  0  0  0  0  0  0  0  0
    2.3616    1.6055    0.2398 C   0  0  0  0  0  0  0  0  0  0  0  0
    1.5088    0.3830   -0.1586 C   0  0  2  0  0  0  0  0  0  0  0  0
    0.0193    0.4423    0.2893 C   0  0  2  0  0  0  0  0  0  0  0  0
   -0.2978    0.0305    1.7522 C   0  0  0  0  0  0  0  0  0  0  0  0
   -1.7018    0.3298    2.2875 C   0  0  0  0  0  0  0  0  0  0  0  0
   -2.7005    1.0113    1.5751 C   0  0  0  0  0  0  0  0  0  0  0  0
   -3.9568    1.2623    2.1422 C   0  0  0  0  0  0  0  0  0  0  0  0
   -4.2326    0.8651    3.4475 C   0  0  0  0  0  0  0  0  0  0  0  0
   -3.2553    0.1958    4.1754 C   0  0  0  0  0  0  0  0  0  0  0  0
   -2.0074   -0.0705    3.6021 C   0  0  0  0  0  0  0  0  0  0  0  0
   -0.8181   -0.3218   -0.6541 N   0  0  0  0  0  0  0  0  0  0  0  0
   -0.7302   -1.6757   -0.8825 C   0  0  0  0  0  0  0  0  0  0  0  0
    0.1531   -2.3692   -0.3949 O   0  0  0  0  0  0  0  0  0  0  0  0
   -1.8890   -2.2725   -1.7028 C   0  0  2  0  0  0  0  0  0  0  0  0
   -1.6758   -3.7833   -1.8424 C   0  0  0  0  0  0  0  0  0  0  0  0
   -2.8538   -4.4001   -2.5502 C   0  0  0  0  0  0  0  0  0  0  0  0
   -3.2984   -3.9669   -3.6027 O   0  0  0  0  0  0  0  0  0  0  0  0
   -3.4020   -5.5016   -1.9662 N   0  0  0  0  0  0  0  0  0  0  0  0
   -2.0175   -1.6115   -2.9999 N   0  0  0  0  0  0  0  0  0  0  0  0
   -2.7315   -0.4589   -3.1306 C   0  0  0  0  0  0  0  0  0  0  0  0
   -2.9668    0.3205   -2.2228 O   0  0  0  0  0  0  0  0  0  0  0  0
   -3.1626   -0.3662   -4.4044 O   0  0  0  0  0  0  0  0  0  0  0  0
   -4.0250    0.7362   -4.6971 C   0  0  0  0  0  0  0  0  0  0  0  0
   -3.2457    1.8229   -5.3869 C   0  0  0  0  0  0  0  0  0  0  0  0
   -2.5211    1.5429   -6.5537 C   0  0  0  0  0  0  0  0  0  0  0  0
   -1.8377    2.5570   -7.2235 C   0  0  0  0  0  0  0  0  0  0  0  0
   -1.8755    3.8610   -6.7308 C   0  0  0  0  0  0  0  0  0  0  0  0
   -2.5847    4.1488   -5.5665 C   0  0  0  0  0  0  0  0  0  0  0  0
   -3.2659    3.1340   -4.8939 C   0  0  0  0  0  0  0  0  0  0  0  0
    2.1751   -0.8249    0.1958 O   0  0  0  0  0  0  0  0  0  0  0  0
    1.9561    2.7360    2.4929 C   0  0  0  0  0  0  0  0  0  0  0  0
    2.0727    2.7500    3.7087 O   0  0  0  0  0  0  0  0  0  0  0  0
    1.1577    3.6273    1.8134 N   0  0  0  0  0  0  0  0  0  0  0  0
    0.3851    4.6964    2.4718 C   0  0  0  0  0  0  0  0  0  0  0  0
    1.3313    5.7102    3.1343 C   0  0  0  0  0  0  0  0  0  0  0  0
   -0.6160    4.1455    3.4976 C   0  0  0  0  0  0  0  0  0  0  0  0
   -0.4234    5.4173    1.3782 C   0  0  0  0  0  0  0  0  0  0  0  0
    4.8141    3.3888    1.9274 H   0  0  0  0  0  0  0  0  0  0  0  0
    6.4924    2.8501    1.8797 H   0  0  0  0  0  0  0  0  0  0  0  0
    5.5567    2.7042    3.3811 H   0  0  0  0  0  0  0  0  0  0  0  0
    5.1255    1.1545    0.7765 H   0  0  0  0  0  0  0  0  0  0  0  0
    5.6899   -0.8402    2.1739 H   0  0  0  0  0  0  0  0  0  0  0  0
    7.0225    0.3122    2.0569 H   0  0  0  0  0  0  0  0  0  0  0  0
    6.0480    0.2349    3.5388 H   0  0  0  0  0  0  0  0  0  0  0  0
    3.5569    1.0307    3.4055 H   0  0  0  0  0  0  0  0  0  0  0  0
    3.3374   -0.1025    2.0982 H   0  0  0  0  0  0  0  0  0  0  0  0
    3.3381    1.5387   -0.2542 H   0  0  0  0  0  0  0  0  0  0  0  0
    1.8751    2.4773   -0.1950 H   0  0  0  0  0  0  0  0  0  0  0  0
    1.5050    0.4045   -1.2589 H   0  0  0  0  0  0  0  0  0  0  0  0
   -0.2913    1.4840    0.1435 H   0  0  0  0  0  0  0  0  0  0  0  0
    0.3956    0.5369    2.4279 H   0  0  0  0  0  0  0  0  0  0  0  0
   -0.1263   -1.0471    1.8775 H   0  0  0  0  0  0  0  0  0  0  0  0
   -2.5312    1.3808    0.5684 H   0  0  0  0  0  0  0  0  0  0  0  0
   -4.7206    1.7814    1.5677 H   0  0  0  0  0  0  0  0  0  0  0  0
   -5.1942    1.0874    3.9005 H   0  0  0  0  0  0  0  0  0  0  0  0
   -3.4591   -0.1142    5.1976 H   0  0  0  0  0  0  0  0  0  0  0  0
   -1.2561   -0.5812    4.2017 H   0  0  0  0  0  0  0  0  0  0  0  0
   -1.6136    0.1642   -1.0651 H   0  0  0  0  0  0  0  0  0  0  0  0
   -2.8108   -2.0903   -1.1335 H   0  0  0  0  0  0  0  0  0  0  0  0
   -1.5486   -4.2459   -0.8557 H   0  0  0  0  0  0  0  0  0  0  0  0
   -0.7758   -4.0109   -2.4270 H   0  0  0  0  0  0  0  0  0  0  0  0
   -4.1603   -5.9483   -2.4557 H   0  0  0  0  0  0  0  0  0  0  0  0
   -2.9702   -5.9989   -1.1942 H   0  0  0  0  0  0  0  0  0  0  0  0
   -2.1697   -2.2150   -3.8052 H   0  0  0  0  0  0  0  0  0  0  0  0
   -4.7995    0.3760   -5.3847 H   0  0  0  0  0  0  0  0  0  0  0  0
   -4.5481    1.1064   -3.8070 H   0  0  0  0  0  0  0  0  0  0  0  0
   -2.4890    0.5280   -6.9466 H   0  0  0  0  0  0  0  0  0  0  0  0
   -1.2803    2.3305   -8.1283 H   0  0  0  0  0  0  0  0  0  0  0  0
   -1.3504    4.6536   -7.2567 H   0  0  0  0  0  0  0  0  0  0  0  0
   -2.6107    5.1653   -5.1810 H   0  0  0  0  0  0  0  0  0  0  0  0
   -3.8150    3.3715   -3.9864 H   0  0  0  0  0  0  0  0  0  0  0  0
    1.5754   -1.5568   -0.0334 H   0  0  0  0  0  0  0  0  0  0  0  0
    1.5973    3.9389    0.9639 H   0  0  0  0  0  0  0  0  0  0  0  0
    1.8950    5.2636    3.9607 H   0  0  0  0  0  0  0  0  0  0  0  0
    2.0604    6.0917    2.4094 H   0  0  0  0  0  0  0  0  0  0  0  0
    0.7814    6.5672    3.5376 H   0  0  0  0  0  0  0  0  0  0  0  0
   -0.1218    3.7254    4.3781 H   0  0  0  0  0  0  0  0  0  0  0  0
   -1.2375    3.3610    3.0550 H   0  0  0  0  0  0  0  0  0  0  0  0
   -1.2878    4.9356    3.8525 H   0  0  0  0  0  0  0  0  0  0  0  0
    0.2369    5.8692    0.6300 H   0  0  0  0  0  0  0  0  0  0  0  0
   -1.0474    6.2156    1.7944 H   0  0  0  0  0  0  0  0  0  0  0  0
   -1.0823    4.7152    0.8551 H   0  0  0  0  0  0  0  0  0  0  0  0
  1  2  1  0  0  0  0
  1 43  1  0  0  0  0
  1 44  1  0  0  0  0
  1 45  1  0  0  0  0
  2  3  1  0  0  0  0
  2  4  1  0  0  0  0
  2 46  1  0  0  0  0
  3 47  1  0  0  0  0
  3 48  1  0  0  0  0
  3 49  1  0  0  0  0
  4  5  1  0  0  0  0
  4 50  1  0  0  0  0
  4 51  1  0  0  0  0
  5  6  1  0  0  0  0
  5 36  1  0  0  0  0
  6  7  1  0  0  0  0
  6 52  1  0  0  0  0
  6 53  1  0  0  0  0
  7  8  1  0  0  0  0
  7 35  1  0  0  0  0
  7 54  1  6  0  0  0
  8  9  1  0  0  0  0
  8 16  1  0  0  0  0
  8 55  1  6  0  0  0
  9 10  1  0  0  0  0
  9 56  1  0  0  0  0
  9 57  1  0  0  0  0
 10 11  2  0  0  0  0
 10 15  1  0  0  0  0
 11 12  1  0  0  0  0
 11 58  1  0  0  0  0
 12 13  2  0  0  0  0
 12 59  1  0  0  0  0
 13 14  1  0  0  0  0
 13 60  1  0  0  0  0
 14 15  2  0  0  0  0
 14 61  1  0  0  0  0
 15 62  1  0  0  0  0
 16 17  1  0  0  0  0
 16 63  1  0  0  0  0
 17 18  2  0  0  0  0
 17 19  1  0  0  0  0
 19 20  1  0  0  0  0
 19 24  1  0  0  0  0
 19 64  1  1  0  0  0
 20 21  1  0  0  0  0
 20 65  1  0  0  0  0
 20 66  1  0  0  0  0
 21 22  2  0  0  0  0
 21 23  1  0  0  0  0
 23 67  1  0  0  0  0
 23 68  1  0  0  0  0
 24 25  1  0  0  0  0
 24 69  1  0  0  0  0
 25 26  2  0  0  0  0
 25 27  1  0  0  0  0
 27 28  1  0  0  0  0
 28 29  1  0  0  0  0
 28 70  1  0  0  0  0
 28 71  1  0  0  0  0
 29 30  2  0  0  0  0
 29 34  1  0  0  0  0
 30 31  1  0  0  0  0
 30 72  1  0  0  0  0
 31 32  2  0  0  0  0
 31 73  1  0  0  0  0
 32 33  1  0  0  0  0
 32 74  1  0  0  0  0
 33 34  2  0  0  0  0
 33 75  1  0  0  0  0
 34 76  1  0  0  0  0
 35 77  1  0  0  0  0
 36 37  2  0  0  0  0
 36 38  1  0  0  0  0
 38 39  1  0  0  0  0
 38 78  1  0  0  0  0
 39 40  1  0  0  0  0
 39 41  1  0  0  0  0
 39 42  1  0  0  0  0
 40 79  1  0  0  0  0
 40 80  1  0  0  0  0
 40 81  1  0  0  0  0
 41 82  1  0  0  0  0
 41 83  1  0  0  0  0
 41 84  1  0  0  0  0
 42 85  1  0  0  0  0
 42 86  1  0  0  0  0
 42 87  1  0  0  0  0
M  END
