
 OpenBabel10072620113D

 32 33  0  0  0  0  0  0  0  0999 V2000
    1.0488   -0.0720   -0.0116 C   0  0  0  0  0  0  0  0  0  0  0  0
    2.4829   -0.4922    0.1767 C   0  0  0  0  0  0  0  0  0  0  0  0
    3.0512   -0.3527    1.2576 O   0  0  0  0  0  0  0  0  0  0  0  0
    3.2157   -1.0925   -0.9782 C   0  0  0  0  0  0  0  0  0  0  0  0
    2.6441   -1.1930   -2.2529 C   0  0  0  0  0  0  0  0  0  0  0  0
    3.3868   -1.7243   -3.3117 C   0  0  0  0  0  0  0  0  0  0  0  0
    4.6827   -2.1927   -3.1002 C   0  0  0  0  0  0  0  0  0  0  0  0
    5.2528   -2.1022   -1.8290 C   0  0  0  0  0  0  0  0  0  0  0  0
    4.5238   -1.5512   -0.7728 C   0  0  0  0  0  0  0  0  0  0  0  0
    2.7940   -1.7876   -4.6063 N   0  0  0  0  0  0  0  0  0  0  0  0
    2.2369   -3.2847   -5.1745 S   0  0  0  0  0  0  0  0  0  0  0  0
    1.8513   -4.0630   -4.0112 O   0  0  0  0  0  0  0  0  0  0  0  0
    1.2142   -2.9480   -6.1468 O   0  0  0  0  0  0  0  0  0  0  0  0
    3.5192   -4.0810   -5.9963 C   0  0  0  0  0  0  0  0  0  0  0  0
    3.6836   -5.4027   -5.8509 C   0  0  0  0  0  0  0  0  0  0  0  0
    4.6572   -6.0746   -6.5441 N   0  0  0  0  0  0  0  0  0  0  0  0
    5.5077   -5.4702   -7.4316 C   0  0  0  0  0  0  0  0  0  0  0  0
    6.3613   -6.0965   -8.0472 O   0  0  0  0  0  0  0  0  0  0  0  0
    5.3342   -4.1221   -7.5824 N   0  0  0  0  0  0  0  0  0  0  0  0
    4.3844   -3.3602   -6.9447 C   0  0  0  0  0  0  0  0  0  0  0  0
    4.2965   -2.1573   -7.1611 O   0  0  0  0  0  0  0  0  0  0  0  0
    0.6721    0.3528    0.9241 H   0  0  0  0  0  0  0  0  0  0  0  0
    0.4359   -0.9415   -0.2646 H   0  0  0  0  0  0  0  0  0  0  0  0
    0.9758    0.6973   -0.7850 H   0  0  0  0  0  0  0  0  0  0  0  0
    1.6274   -0.8615   -2.4380 H   0  0  0  0  0  0  0  0  0  0  0  0
    5.2723   -2.5933   -3.9192 H   0  0  0  0  0  0  0  0  0  0  0  0
    6.2690   -2.4504   -1.6571 H   0  0  0  0  0  0  0  0  0  0  0  0
    4.9823   -1.4749    0.2130 H   0  0  0  0  0  0  0  0  0  0  0  0
    2.0894   -1.0781   -4.8124 H   0  0  0  0  0  0  0  0  0  0  0  0
    3.0599   -6.0096   -5.1977 H   0  0  0  0  0  0  0  0  0  0  0  0
    4.7706   -7.0786   -6.4378 H   0  0  0  0  0  0  0  0  0  0  0  0
    5.9415   -3.6557   -8.2404 H   0  0  0  0  0  0  0  0  0  0  0  0
  1  2  1  0  0  0  0
  1 22  1  0  0  0  0
  1 23  1  0  0  0  0
  1 24  1  0  0  0  0
  2  3  2  0  0  0  0
  2  4  1  0  0  0  0
  4  5  2  0  0  0  0
  4  9  1  0  0  0  0
  5  6  1  0  0  0  0
  5 25  1  0  0  0  0
  6  7  2  0  0  0  0
  6 10  1  0  0  0  0
  7  8  1  0  0  0  0
  7 26  1  0  0  0  0
  8  9  2  0  0  0  0
  8 27  1  0  0  0  0
  9 28  1  0  0  0  0
 10 11  1  0  0  0  0
 10 29  1  0  0  0  0
 11 12  2  0  0  0  0
 11 13  2  0  0  0  0
 11 14  1  0  0  0  0
 14 15  2  0  0  0  0
 14 20  1  0  0  0  0
 15 16  1  0  0  0  0
 15 30  1  0  0  0  0
 16 17  1  0  0  0  0
 16 31  1  0  0  0  0
 17 18  2  0  0  0  0
 17 19  1  0  0  0  0
 19 20  1  0  0  0  0
 19 32  1  0  0  0  0
 20 21  2  0  0  0  0
M  END
