
 OpenBabel10072616333D

 45 46  0  0  0  0  0  0  0  0999 V2000
    1.1013    0.6006    0.9295 C   0  0  0  0  0  0  0  0  0  0  0  0
    2.4376    0.2918    0.5475 O   0  0  0  0  0  0  0  0  0  0  0  0
    3.1751    1.2961   -0.0245 C   0  0  0  0  0  0  0  0  0  0  0  0
    2.9084    2.6464    0.2273 C   0  0  0  0  0  0  0  0  0  0  0  0
    3.7057    3.6476   -0.3391 C   0  0  0  0  0  0  0  0  0  0  0  0
    4.8212    3.3121   -1.1082 C   0  0  0  0  0  0  0  0  0  0  0  0
    5.1116    1.9693   -1.3613 C   0  0  0  0  0  0  0  0  0  0  0  0
    4.2794    0.9533   -0.8316 C   0  0  0  0  0  0  0  0  0  0  0  0
    4.6798   -0.3271   -1.1384 O   0  0  0  0  0  0  0  0  0  0  0  0
    3.6687   -1.3167   -1.2530 C   0  0  0  0  0  0  0  0  0  0  0  0
    6.1736    1.5417   -2.1229 O   0  0  0  0  0  0  0  0  0  0  0  0
    6.9578    2.5253   -2.7852 C   0  0  0  0  0  0  0  0  0  0  0  0
    3.3765    5.0818   -0.1203 C   0  0  0  0  0  0  0  0  0  0  0  0
    4.2762    5.9068   -0.0505 O   0  0  0  0  0  0  0  0  0  0  0  0
    2.0147    5.3692   -0.2061 N   0  0  0  0  0  0  0  0  0  0  0  0
    1.2991    6.4241    0.3125 C   0  0  0  0  0  0  0  0  0  0  0  0
    1.8566    7.5538    1.4074 S   0  0  0  0  0  0  0  0  0  0  0  0
   -0.0264    6.5001   -0.0433 N   0  0  0  0  0  0  0  0  0  0  0  0
   -0.7930    5.8783   -1.0605 C   0  0  0  0  0  0  0  0  0  0  0  0
   -0.2864    5.3393   -2.2560 C   0  0  0  0  0  0  0  0  0  0  0  0
   -1.1435    4.7144   -3.1790 C   0  0  0  0  0  0  0  0  0  0  0  0
   -2.5162    4.6547   -2.9481 C   0  0  0  0  0  0  0  0  0  0  0  0
   -3.0305    5.2278   -1.7825 C   0  0  0  0  0  0  0  0  0  0  0  0
   -2.1796    5.8438   -0.8478 C   0  0  0  0  0  0  0  0  0  0  0  0
   -4.4764    5.1772   -1.5270 N   0  3  0  0  0  0  0  0  0  0  0  0
   -5.1880    4.6010   -2.3606 O   0  0  0  0  0  0  0  0  0  0  0  0
   -4.8919    5.7091   -0.4894 O   0  5  0  0  0  0  0  0  0  0  0  0
   -0.5315    4.0265   -4.6403 Cl  0  0  0  0  0  0  0  0  0  0  0  0
    1.0353    5.4516   -2.5944 O   0  0  0  0  0  0  0  0  0  0  0  0
    0.5626   -0.3429    1.0566 H   0  0  0  0  0  0  0  0  0  0  0  0
    0.5821    1.1732    0.1535 H   0  0  0  0  0  0  0  0  0  0  0  0
    1.0852    1.1311    1.8872 H   0  0  0  0  0  0  0  0  0  0  0  0
    2.1063    2.9327    0.8991 H   0  0  0  0  0  0  0  0  0  0  0  0
    5.4467    4.1121   -1.4922 H   0  0  0  0  0  0  0  0  0  0  0  0
    4.0602   -2.1207   -1.8836 H   0  0  0  0  0  0  0  0  0  0  0  0
    2.7621   -0.9378   -1.7379 H   0  0  0  0  0  0  0  0  0  0  0  0
    3.4534   -1.7525   -0.2734 H   0  0  0  0  0  0  0  0  0  0  0  0
    7.7239    2.0049   -3.3693 H   0  0  0  0  0  0  0  0  0  0  0  0
    7.4715    3.1723   -2.0664 H   0  0  0  0  0  0  0  0  0  0  0  0
    6.3497    3.1097   -3.4844 H   0  0  0  0  0  0  0  0  0  0  0  0
    1.4477    4.6359   -0.6108 H   0  0  0  0  0  0  0  0  0  0  0  0
   -0.5398    7.1183    0.5847 H   0  0  0  0  0  0  0  0  0  0  0  0
   -3.1679    4.1813   -3.6809 H   0  0  0  0  0  0  0  0  0  0  0  0
   -2.5968    6.2747    0.0629 H   0  0  0  0  0  0  0  0  0  0  0  0
    1.3932    6.2694   -2.1964 H   0  0  0  0  0  0  0  0  0  0  0  0
  1  2  1  0  0  0  0
  1 30  1  0  0  0  0
  1 31  1  0  0  0  0
  1 32  1  0  0  0  0
  2  3  1  0  0  0  0
  3  4  2  0  0  0  0
  3  8  1  0  0  0  0
  4  5  1  0  0  0  0
  4 33  1  0  0  0  0
  5  6  2  0  0  0  0
  5 13  1  0  0  0  0
  6  7  1  0  0  0  0
  6 34  1  0  0  0  0
  7  8  2  0  0  0  0
  7 11  1  0  0  0  0
  8  9  1  0  0  0  0
  9 10  1  0  0  0  0
 10 35  1  0  0  0  0
 10 36  1  0  0  0  0
 10 37  1  0  0  0  0
 11 12  1  0  0  0  0
 12 38  1  0  0  0  0
 12 39  1  0  0  0  0
 12 40  1  0  0  0  0
 13 14  2  0  0  0  0
 13 15  1  0  0  0  0
 15 16  1  0  0  0  0
 15 41  1  0  0  0  0
 16 17  2  0  0  0  0
 16 18  1  0  0  0  0
 18 19  1  0  0  0  0
 18 42  1  0  0  0  0
 19 20  2  0  0  0  0
 19 24  1  0  0  0  0
 20 21  1  0  0  0  0
 20 29  1  0  0  0  0
 21 22  2  0  0  0  0
 21 28  1  0  0  0  0
 22 23  1  0  0  0  0
 22 43  1  0  0  0  0
 23 24  2  0  0  0  0
 23 25  1  0  0  0  0
 24 44  1  0  0  0  0
 25 26  2  0  0  0  0
 25 27  1  0  0  0  0
 29 45  1  0  0  0  0
M  CHG  2  25   1  27  -1
M  END
