
 OpenBabel10072620073D

 53 58  0  0  1  0  0  0  0  0999 V2000
   -0.8319    0.8067    1.4324 C   0  0  0  0  0  0  0  0  0  0  0  0
   -1.6298    0.1550    0.2905 C   0  0  3  0  0  0  0  0  0  0  0  0
   -1.1500    0.7342   -1.0504 C   0  0  0  0  0  0  0  0  0  0  0  0
    0.3478    0.4464   -1.2392 C   0  0  3  0  0  0  0  0  0  0  0  0
    1.1386    1.0930   -0.0913 C   0  0  0  0  0  0  0  0  0  0  0  0
    0.6686    0.5212    1.2550 C   0  0  3  0  0  0  0  0  0  0  0  0
    0.9005   -1.0002    1.2719 C   0  0  0  0  0  0  0  0  0  0  0  0
    0.1096   -1.6908    0.1286 C   0  0  3  0  0  0  0  0  0  0  0  0
   -1.3961   -1.3682    0.3046 C   0  0  0  0  0  0  0  0  0  0  0  0
    0.5756   -1.0737   -1.2192 C   0  0  0  0  0  0  0  0  0  0  0  0
    0.3748   -3.2138    0.0828 C   0  0  0  0  0  0  0  0  0  0  0  0
   -0.0818   -3.8897    1.3043 N   0  0  0  0  0  0  0  0  0  0  0  0
    0.0437   -5.5687    1.3714 S   0  0  0  0  0  0  0  0  0  0  0  0
    1.2176   -5.9589    0.6228 O   0  0  0  0  0  0  0  0  0  0  0  0
   -0.1295   -5.9319    2.7597 O   0  0  0  0  0  0  0  0  0  0  0  0
   -1.4061   -6.1005    0.4970 C   0  0  0  0  0  0  0  0  0  0  0  0
   -2.6637   -5.8843    1.0859 C   0  0  0  0  0  0  0  0  0  0  0  0
   -3.8054   -6.3182    0.3872 C   0  0  0  0  0  0  0  0  0  0  0  0
   -3.6342   -6.9447   -0.8442 C   0  0  0  0  0  0  0  0  0  0  0  0
   -2.3966   -7.1807   -1.4409 C   0  0  0  0  0  0  0  0  0  0  0  0
   -1.2693   -6.7432   -0.7395 C   0  0  0  0  0  0  0  0  0  0  0  0
   -4.8375   -7.2842   -1.3802 O   0  0  0  0  0  0  0  0  0  0  0  0
   -5.7928   -6.8827   -0.4981 C   0  0  0  0  0  0  0  0  0  0  0  0
   -7.1655   -7.0370   -0.6763 C   0  0  0  0  0  0  0  0  0  0  0  0
   -7.9875   -6.5554    0.3472 C   0  0  0  0  0  0  0  0  0  0  0  0
   -7.4450   -5.9626    1.4903 C   0  0  0  0  0  0  0  0  0  0  0  0
   -6.0576   -5.8222    1.6429 C   0  0  0  0  0  0  0  0  0  0  0  0
   -5.2123   -6.2885    0.6177 C   0  0  0  0  0  0  0  0  0  0  0  0
   -1.1766    0.4218    2.4000 H   0  0  0  0  0  0  0  0  0  0  0  0
   -1.0071    1.8900    1.4397 H   0  0  0  0  0  0  0  0  0  0  0  0
   -2.6970    0.3655    0.4199 H   0  0  0  0  0  0  0  0  0  0  0  0
   -1.3276    1.8168   -1.0758 H   0  0  0  0  0  0  0  0  0  0  0  0
   -1.7245    0.2974   -1.8767 H   0  0  0  0  0  0  0  0  0  0  0  0
    0.6853    0.8572   -2.1971 H   0  0  0  0  0  0  0  0  0  0  0  0
    0.9967    2.1808   -0.1062 H   0  0  0  0  0  0  0  0  0  0  0  0
    2.2123    0.9103   -0.2236 H   0  0  0  0  0  0  0  0  0  0  0  0
    1.2317    0.9887    2.0702 H   0  0  0  0  0  0  0  0  0  0  0  0
    0.5937   -1.3895    2.2498 H   0  0  0  0  0  0  0  0  0  0  0  0
    1.9728   -1.2113    1.1717 H   0  0  0  0  0  0  0  0  0  0  0  0
   -1.7714   -1.7813    1.2490 H   0  0  0  0  0  0  0  0  0  0  0  0
   -1.9786   -1.8374   -0.4987 H   0  0  0  0  0  0  0  0  0  0  0  0
    0.0302   -1.5360   -2.0526 H   0  0  0  0  0  0  0  0  0  0  0  0
    1.6393   -1.2881   -1.3850 H   0  0  0  0  0  0  0  0  0  0  0  0
    1.4506   -3.3871   -0.0386 H   0  0  0  0  0  0  0  0  0  0  0  0
   -0.1418   -3.6517   -0.7800 H   0  0  0  0  0  0  0  0  0  0  0  0
    0.1555   -3.4773    2.2055 H   0  0  0  0  0  0  0  0  0  0  0  0
   -2.7529   -5.3963    2.0524 H   0  0  0  0  0  0  0  0  0  0  0  0
   -2.3197   -7.6816   -2.3989 H   0  0  0  0  0  0  0  0  0  0  0  0
   -0.2828   -6.9154   -1.1669 H   0  0  0  0  0  0  0  0  0  0  0  0
   -7.5684   -7.5002   -1.5686 H   0  0  0  0  0  0  0  0  0  0  0  0
   -9.0675   -6.6462    0.2502 H   0  0  0  0  0  0  0  0  0  0  0  0
   -8.1086   -5.6026    2.2741 H   0  0  0  0  0  0  0  0  0  0  0  0
   -5.6492   -5.3579    2.5358 H   0  0  0  0  0  0  0  0  0  0  0  0
  1  2  1  0  0  0  0
  1  6  1  0  0  0  0
  1 29  1  0  0  0  0
  1 30  1  0  0  0  0
  2  3  1  0  0  0  0
  2  9  1  0  0  0  0
  2 31  1  0  0  0  0
  3  4  1  0  0  0  0
  3 32  1  0  0  0  0
  3 33  1  0  0  0  0
  4  5  1  0  0  0  0
  4 10  1  0  0  0  0
  4 34  1  0  0  0  0
  5  6  1  0  0  0  0
  5 35  1  0  0  0  0
  5 36  1  0  0  0  0
  6  7  1  0  0  0  0
  6 37  1  0  0  0  0
  7  8  1  0  0  0  0
  7 38  1  0  0  0  0
  7 39  1  0  0  0  0
  8  9  1  0  0  0  0
  8 10  1  0  0  0  0
  8 11  1  0  0  0  0
  9 40  1  0  0  0  0
  9 41  1  0  0  0  0
 10 42  1  0  0  0  0
 10 43  1  0  0  0  0
 11 12  1  0  0  0  0
 11 44  1  0  0  0  0
 11 45  1  0  0  0  0
 12 13  1  0  0  0  0
 12 46  1  0  0  0  0
 13 14  2  0  0  0  0
 13 15  2  0  0  0  0
 13 16  1  0  0  0  0
 16 17  2  0  0  0  0
 16 21  1  0  0  0  0
 17 18  1  0  0  0  0
 17 47  1  0  0  0  0
 18 19  2  0  0  0  0
 18 28  1  0  0  0  0
 19 20  1  0  0  0  0
 19 22  1  0  0  0  0
 20 21  2  0  0  0  0
 20 48  1  0  0  0  0
 21 49  1  0  0  0  0
 22 23  1  0  0  0  0
 23 24  2  0  0  0  0
 23 28  1  0  0  0  0
 24 25  1  0  0  0  0
 24 50  1  0  0  0  0
 25 26  2  0  0  0  0
 25 51  1  0  0  0  0
 26 27  1  0  0  0  0
 26 52  1  0  0  0  0
 27 28  2  0  0  0  0
 27 53  1  0  0  0  0
M  END
