
 OpenBabel10072616343D

 78 79  0  0  0  0  0  0  0  0999 V2000
    6.0440  -11.3996   -1.4769 C   0  0  0  0  0  0  0  0  0  0  0  0
    7.2266  -10.4573   -1.3237 C   0  0  0  0  0  0  0  0  0  0  0  0
    7.1106   -9.6345   -0.0428 C   0  0  0  0  0  0  0  0  0  0  0  0
    8.3077   -8.7038    0.1393 C   0  0  0  0  0  0  0  0  0  0  0  0
    8.2458   -7.9959    1.4947 C   0  0  0  0  0  0  0  0  0  0  0  0
    9.4186   -7.0331    1.6545 C   0  0  0  0  0  0  0  0  0  0  0  0
    9.4424   -6.3760    3.0331 C   0  0  0  0  0  0  0  0  0  0  0  0
   10.5683   -5.3490    3.1115 C   0  0  0  0  0  0  0  0  0  0  0  0
   10.6728   -4.8663    4.4501 O   0  0  0  0  0  0  0  0  0  0  0  0
   11.6975   -3.9865    4.6873 C   0  0  0  0  0  0  0  0  0  0  0  0
   12.5160   -3.4148    3.7160 C   0  0  0  0  0  0  0  0  0  0  0  0
   13.5291   -2.5197    4.0790 C   0  0  0  0  0  0  0  0  0  0  0  0
   13.7214   -2.1632    5.4138 C   0  0  0  0  0  0  0  0  0  0  0  0
   12.9196   -2.7641    6.3897 C   0  0  0  0  0  0  0  0  0  0  0  0
   11.9063   -3.6584    6.0251 C   0  0  0  0  0  0  0  0  0  0  0  0
   14.7406   -1.2856    5.8398 N   0  0  0  0  0  0  0  0  0  0  0  0
   15.4110   -0.2734    5.1403 C   0  0  0  0  0  0  0  0  0  0  0  0
   14.8463    0.5215    3.7765 S   0  0  0  0  0  0  0  0  0  0  0  0
   16.6363   -0.0509    5.7797 N   0  0  0  0  0  0  0  0  0  0  0  0
   17.5568    1.0114    5.6435 C   0  0  0  0  0  0  0  0  0  0  0  0
   17.2035    2.3117    5.2865 C   0  0  0  0  0  0  0  0  0  0  0  0
   18.1778    3.3081    5.1469 C   0  0  0  0  0  0  0  0  0  0  0  0
   19.5188    3.0219    5.3935 C   0  0  0  0  0  0  0  0  0  0  0  0
   19.8717    1.7336    5.7946 C   0  0  0  0  0  0  0  0  0  0  0  0
   18.8975    0.7390    5.9364 C   0  0  0  0  0  0  0  0  0  0  0  0
   20.5643    3.8973    5.2759 O   0  0  0  0  0  0  0  0  0  0  0  0
   20.2167    5.2710    5.1065 C   0  0  0  0  0  0  0  0  0  0  0  0
   21.4956    6.1069    5.1011 C   0  0  0  0  0  0  0  0  0  0  0  0
   21.1584    7.5964    5.0325 C   0  0  0  0  0  0  0  0  0  0  0  0
   22.4117    8.4680    4.9491 C   0  0  0  0  0  0  0  0  0  0  0  0
   22.0556    9.9488    5.1039 C   0  0  0  0  0  0  0  0  0  0  0  0
   23.2772   10.8461    4.9027 C   0  0  0  0  0  0  0  0  0  0  0  0
   22.9309   12.3194    5.1242 C   0  0  0  0  0  0  0  0  0  0  0  0
   24.0833   13.2284    4.7267 C   0  0  0  0  0  0  0  0  0  0  0  0
    6.1466  -11.9937   -2.3896 H   0  0  0  0  0  0  0  0  0  0  0  0
    5.1044  -10.8415   -1.5362 H   0  0  0  0  0  0  0  0  0  0  0  0
    5.9796  -12.0887   -0.6287 H   0  0  0  0  0  0  0  0  0  0  0  0
    7.2773   -9.7928   -2.1936 H   0  0  0  0  0  0  0  0  0  0  0  0
    8.1531  -11.0430   -1.3079 H   0  0  0  0  0  0  0  0  0  0  0  0
    7.0355  -10.3091    0.8183 H   0  0  0  0  0  0  0  0  0  0  0  0
    6.1894   -9.0397   -0.0686 H   0  0  0  0  0  0  0  0  0  0  0  0
    8.3256   -7.9621   -0.6694 H   0  0  0  0  0  0  0  0  0  0  0  0
    9.2399   -9.2783    0.0712 H   0  0  0  0  0  0  0  0  0  0  0  0
    8.2656   -8.7415    2.2991 H   0  0  0  0  0  0  0  0  0  0  0  0
    7.3020   -7.4445    1.5840 H   0  0  0  0  0  0  0  0  0  0  0  0
    9.3611   -6.2610    0.8779 H   0  0  0  0  0  0  0  0  0  0  0  0
   10.3599   -7.5742    1.4989 H   0  0  0  0  0  0  0  0  0  0  0  0
    9.5747   -7.1329    3.8148 H   0  0  0  0  0  0  0  0  0  0  0  0
    8.4857   -5.8848    3.2464 H   0  0  0  0  0  0  0  0  0  0  0  0
   10.3359   -4.5202    2.4319 H   0  0  0  0  0  0  0  0  0  0  0  0
   11.5109   -5.8244    2.8126 H   0  0  0  0  0  0  0  0  0  0  0  0
   12.4055   -3.6370    2.6602 H   0  0  0  0  0  0  0  0  0  0  0  0
   14.1731   -2.1476    3.2909 H   0  0  0  0  0  0  0  0  0  0  0  0
   13.0550   -2.5355    7.4435 H   0  0  0  0  0  0  0  0  0  0  0  0
   11.2770   -4.1033    6.7938 H   0  0  0  0  0  0  0  0  0  0  0  0
   14.8888   -1.2459    6.8419 H   0  0  0  0  0  0  0  0  0  0  0  0
   17.0189   -0.8968    6.1810 H   0  0  0  0  0  0  0  0  0  0  0  0
   16.1675    2.5956    5.1272 H   0  0  0  0  0  0  0  0  0  0  0  0
   17.8487    4.2947    4.8355 H   0  0  0  0  0  0  0  0  0  0  0  0
   20.9136    1.4998    5.9956 H   0  0  0  0  0  0  0  0  0  0  0  0
   19.2124   -0.2522    6.2480 H   0  0  0  0  0  0  0  0  0  0  0  0
   19.5749    5.5943    5.9350 H   0  0  0  0  0  0  0  0  0  0  0  0
   19.6960    5.4119    4.1521 H   0  0  0  0  0  0  0  0  0  0  0  0
   22.1231    5.8097    4.2518 H   0  0  0  0  0  0  0  0  0  0  0  0
   22.0805    5.8899    6.0042 H   0  0  0  0  0  0  0  0  0  0  0  0
   20.5758    7.8716    5.9207 H   0  0  0  0  0  0  0  0  0  0  0  0
   20.5262    7.7913    4.1565 H   0  0  0  0  0  0  0  0  0  0  0  0
   22.9073    8.3006    3.9853 H   0  0  0  0  0  0  0  0  0  0  0  0
   23.1230    8.1812    5.7323 H   0  0  0  0  0  0  0  0  0  0  0  0
   21.6314   10.1184    6.1006 H   0  0  0  0  0  0  0  0  0  0  0  0
   21.2813   10.2205    4.3768 H   0  0  0  0  0  0  0  0  0  0  0  0
   23.6642   10.7050    3.8867 H   0  0  0  0  0  0  0  0  0  0  0  0
   24.0735   10.5517    5.5969 H   0  0  0  0  0  0  0  0  0  0  0  0
   22.6853   12.4872    6.1795 H   0  0  0  0  0  0  0  0  0  0  0  0
   22.0455   12.5923    4.5389 H   0  0  0  0  0  0  0  0  0  0  0  0
   24.9850   13.0000    5.3031 H   0  0  0  0  0  0  0  0  0  0  0  0
   23.8208   14.2758    4.9049 H   0  0  0  0  0  0  0  0  0  0  0  0
   24.3184   13.1167    3.6635 H   0  0  0  0  0  0  0  0  0  0  0  0
  1  2  1  0  0  0  0
  1 35  1  0  0  0  0
  1 36  1  0  0  0  0
  1 37  1  0  0  0  0
  2  3  1  0  0  0  0
  2 38  1  0  0  0  0
  2 39  1  0  0  0  0
  3  4  1  0  0  0  0
  3 40  1  0  0  0  0
  3 41  1  0  0  0  0
  4  5  1  0  0  0  0
  4 42  1  0  0  0  0
  4 43  1  0  0  0  0
  5  6  1  0  0  0  0
  5 44  1  0  0  0  0
  5 45  1  0  0  0  0
  6  7  1  0  0  0  0
  6 46  1  0  0  0  0
  6 47  1  0  0  0  0
  7  8  1  0  0  0  0
  7 48  1  0  0  0  0
  7 49  1  0  0  0  0
  8  9  1  0  0  0  0
  8 50  1  0  0  0  0
  8 51  1  0  0  0  0
  9 10  1  0  0  0  0
 10 11  2  0  0  0  0
 10 15  1  0  0  0  0
 11 12  1  0  0  0  0
 11 52  1  0  0  0  0
 12 13  2  0  0  0  0
 12 53  1  0  0  0  0
 13 14  1  0  0  0  0
 13 16  1  0  0  0  0
 14 15  2  0  0  0  0
 14 54  1  0  0  0  0
 15 55  1  0  0  0  0
 16 17  1  0  0  0  0
 16 56  1  0  0  0  0
 17 18  2  0  0  0  0
 17 19  1  0  0  0  0
 19 20  1  0  0  0  0
 19 57  1  0  0  0  0
 20 21  2  0  0  0  0
 20 25  1  0  0  0  0
 21 22  1  0  0  0  0
 21 58  1  0  0  0  0
 22 23  2  0  0  0  0
 22 59  1  0  0  0  0
 23 24  1  0  0  0  0
 23 26  1  0  0  0  0
 24 25  2  0  0  0  0
 24 60  1  0  0  0  0
 25 61  1  0  0  0  0
 26 27  1  0  0  0  0
 27 28  1  0  0  0  0
 27 62  1  0  0  0  0
 27 63  1  0  0  0  0
 28 29  1  0  0  0  0
 28 64  1  0  0  0  0
 28 65  1  0  0  0  0
 29 30  1  0  0  0  0
 29 66  1  0  0  0  0
 29 67  1  0  0  0  0
 30 31  1  0  0  0  0
 30 68  1  0  0  0  0
 30 69  1  0  0  0  0
 31 32  1  0  0  0  0
 31 70  1  0  0  0  0
 31 71  1  0  0  0  0
 32 33  1  0  0  0  0
 32 72  1  0  0  0  0
 32 73  1  0  0  0  0
 33 34  1  0  0  0  0
 33 74  1  0  0  0  0
 33 75  1  0  0  0  0
 34 76  1  0  0  0  0
 34 77  1  0  0  0  0
 34 78  1  0  0  0  0
M  END
