
 OpenBabel10072620213D

 32 33  0  0  0  0  0  0  0  0999 V2000
    1.3230   -0.4018   -0.4716 C   0  0  0  0  0  0  0  0  0  0  0  0
    0.3950   -1.2946   -1.0040 C   0  0  0  0  0  0  0  0  0  0  0  0
   -0.9722   -1.0215   -0.9137 C   0  0  0  0  0  0  0  0  0  0  0  0
   -1.4285    0.1427   -0.2797 C   0  0  0  0  0  0  0  0  0  0  0  0
   -0.4817    1.0379    0.2428 C   0  0  0  0  0  0  0  0  0  0  0  0
    0.8849    0.7643    0.1519 C   0  0  0  0  0  0  0  0  0  0  0  0
   -2.9017    0.4857   -0.2271 C   0  0  0  0  0  0  0  0  0  0  0  0
   -3.7619   -0.6862   -0.0523 N   0  0  0  0  0  0  0  0  0  0  0  0
   -5.0380   -0.5109   -0.0291 C   0  0  0  0  0  0  0  0  0  0  0  0
   -5.7097    0.6712   -0.0832 N   0  0  0  0  0  0  0  0  0  0  0  0
   -5.8341   -1.6077    0.1426 N   0  0  0  0  0  0  0  0  0  0  0  0
   -7.0709   -1.9123   -0.4671 C   0  0  0  0  0  0  0  0  0  0  0  0
   -7.6252   -1.1664   -1.5151 C   0  0  0  0  0  0  0  0  0  0  0  0
   -8.8804   -1.4888   -2.0494 C   0  0  0  0  0  0  0  0  0  0  0  0
   -9.6055   -2.5642   -1.5307 C   0  0  0  0  0  0  0  0  0  0  0  0
   -9.0677   -3.3148   -0.4846 C   0  0  0  0  0  0  0  0  0  0  0  0
   -7.8130   -2.9891    0.0414 C   0  0  0  0  0  0  0  0  0  0  0  0
  -11.1626   -3.0137   -2.1285 Cl  0  0  0  0  0  0  0  0  0  0  0  0
   -9.4764   -0.5131   -3.3462 Cl  0  0  0  0  0  0  0  0  0  0  0  0
    2.3865   -0.6123   -0.5467 H   0  0  0  0  0  0  0  0  0  0  0  0
    0.7339   -2.2042   -1.4924 H   0  0  0  0  0  0  0  0  0  0  0  0
   -1.6869   -1.7227   -1.3390 H   0  0  0  0  0  0  0  0  0  0  0  0
   -0.8034    1.9580    0.7252 H   0  0  0  0  0  0  0  0  0  0  0  0
    1.6073    1.4629    0.5654 H   0  0  0  0  0  0  0  0  0  0  0  0
   -3.1519    1.0068   -1.1600 H   0  0  0  0  0  0  0  0  0  0  0  0
   -3.0620    1.1750    0.6115 H   0  0  0  0  0  0  0  0  0  0  0  0
   -5.1659    1.5003    0.1112 H   0  0  0  0  0  0  0  0  0  0  0  0
   -6.5757    0.6591    0.4444 H   0  0  0  0  0  0  0  0  0  0  0  0
   -5.2710   -2.4410    0.2880 H   0  0  0  0  0  0  0  0  0  0  0  0
   -7.0691   -0.3387   -1.9486 H   0  0  0  0  0  0  0  0  0  0  0  0
   -9.6209   -4.1525   -0.0670 H   0  0  0  0  0  0  0  0  0  0  0  0
   -7.4235   -3.5783    0.8702 H   0  0  0  0  0  0  0  0  0  0  0  0
  1  2  2  0  0  0  0
  1  6  1  0  0  0  0
  1 20  1  0  0  0  0
  2  3  1  0  0  0  0
  2 21  1  0  0  0  0
  3  4  2  0  0  0  0
  3 22  1  0  0  0  0
  4  5  1  0  0  0  0
  4  7  1  0  0  0  0
  5  6  2  0  0  0  0
  5 23  1  0  0  0  0
  6 24  1  0  0  0  0
  7  8  1  0  0  0  0
  7 25  1  0  0  0  0
  7 26  1  0  0  0  0
  8  9  2  3  0  0  0
  9 10  1  0  0  0  0
  9 11  1  0  0  0  0
 10 27  1  0  0  0  0
 10 28  1  0  0  0  0
 11 12  1  0  0  0  0
 11 29  1  0  0  0  0
 12 13  2  0  0  0  0
 12 17  1  0  0  0  0
 13 14  1  0  0  0  0
 13 30  1  0  0  0  0
 14 15  2  0  0  0  0
 14 19  1  0  0  0  0
 15 16  1  0  0  0  0
 15 18  1  0  0  0  0
 16 17  2  0  0  0  0
 16 31  1  0  0  0  0
 17 32  1  0  0  0  0
M  END
