
 OpenBabel10072620213D

 41 42  0  0  0  0  0  0  0  0999 V2000
    2.3188    0.6178   -1.6953 C   0  0  0  0  0  0  0  0  0  0  0  0
    0.8302    0.7835   -1.6040 C   0  0  0  0  0  0  0  0  0  0  0  0
    0.0973    0.0331   -0.6782 C   0  0  0  0  0  0  0  0  0  0  0  0
   -1.2948    0.1412   -0.6174 C   0  0  0  0  0  0  0  0  0  0  0  0
   -1.9852    1.0109   -1.4741 C   0  0  0  0  0  0  0  0  0  0  0  0
   -1.2489    1.7394   -2.4195 C   0  0  0  0  0  0  0  0  0  0  0  0
    0.1444    1.6267   -2.4845 C   0  0  0  0  0  0  0  0  0  0  0  0
   -3.4948    1.1204   -1.4405 C   0  0  0  0  0  0  0  0  0  0  0  0
   -4.0362    0.9724   -0.0822 N   0  0  0  0  0  0  0  0  0  0  0  0
   -5.6949    1.2141    0.0961 S   0  0  0  0  0  0  0  0  0  0  0  0
   -6.3461    0.5702   -1.0242 O   0  0  0  0  0  0  0  0  0  0  0  0
   -5.9979    0.8267    1.4565 O   0  0  0  0  0  0  0  0  0  0  0  0
   -5.9167    2.9281   -0.0641 C   0  0  0  0  0  0  0  0  0  0  0  0
   -5.5302    3.7384    0.9351 C   0  0  0  0  0  0  0  0  0  0  0  0
   -5.6722    5.1994    0.9178 C   0  0  0  0  0  0  0  0  0  0  0  0
   -6.7560    5.8434    0.3102 C   0  0  0  0  0  0  0  0  0  0  0  0
   -6.8883    7.2365    0.3709 C   0  0  0  0  0  0  0  0  0  0  0  0
   -5.9427    8.0050    1.0476 C   0  0  0  0  0  0  0  0  0  0  0  0
   -4.8609    7.3673    1.6560 C   0  0  0  0  0  0  0  0  0  0  0  0
   -4.7308    5.9759    1.6024 C   0  0  0  0  0  0  0  0  0  0  0  0
   -5.9684    9.3648    1.1894 O   0  0  0  0  0  0  0  0  0  0  0  0
   -7.1404   10.0316    0.7334 C   0  0  0  0  0  0  0  0  0  0  0  0
    2.7454    0.4387   -0.7031 H   0  0  0  0  0  0  0  0  0  0  0  0
    2.7954    1.5188   -2.0949 H   0  0  0  0  0  0  0  0  0  0  0  0
    2.5654   -0.2292   -2.3437 H   0  0  0  0  0  0  0  0  0  0  0  0
    0.6058   -0.6461    0.0027 H   0  0  0  0  0  0  0  0  0  0  0  0
   -1.8365   -0.4648    0.1069 H   0  0  0  0  0  0  0  0  0  0  0  0
   -1.7564    2.4009   -3.1191 H   0  0  0  0  0  0  0  0  0  0  0  0
    0.6878    2.2012   -3.2323 H   0  0  0  0  0  0  0  0  0  0  0  0
   -3.9155    0.3471   -2.0941 H   0  0  0  0  0  0  0  0  0  0  0  0
   -3.7825    2.1048   -1.8280 H   0  0  0  0  0  0  0  0  0  0  0  0
   -3.5035    1.4608    0.6363 H   0  0  0  0  0  0  0  0  0  0  0  0
   -6.3627    3.2710   -0.9857 H   0  0  0  0  0  0  0  0  0  0  0  0
   -5.0837    3.3251    1.8384 H   0  0  0  0  0  0  0  0  0  0  0  0
   -7.5288    5.2738   -0.2002 H   0  0  0  0  0  0  0  0  0  0  0  0
   -7.7473    7.6862   -0.1152 H   0  0  0  0  0  0  0  0  0  0  0  0
   -4.1185    7.9557    2.1898 H   0  0  0  0  0  0  0  0  0  0  0  0
   -3.8851    5.5106    2.1037 H   0  0  0  0  0  0  0  0  0  0  0  0
   -7.0390   11.0943    0.9744 H   0  0  0  0  0  0  0  0  0  0  0  0
   -8.0327    9.6587    1.2476 H   0  0  0  0  0  0  0  0  0  0  0  0
   -7.2471    9.9438   -0.3530 H   0  0  0  0  0  0  0  0  0  0  0  0
  1  2  1  0  0  0  0
  1 23  1  0  0  0  0
  1 24  1  0  0  0  0
  1 25  1  0  0  0  0
  2  3  2  0  0  0  0
  2  7  1  0  0  0  0
  3  4  1  0  0  0  0
  3 26  1  0  0  0  0
  4  5  2  0  0  0  0
  4 27  1  0  0  0  0
  5  6  1  0  0  0  0
  5  8  1  0  0  0  0
  6  7  2  0  0  0  0
  6 28  1  0  0  0  0
  7 29  1  0  0  0  0
  8  9  1  0  0  0  0
  8 30  1  0  0  0  0
  8 31  1  0  0  0  0
  9 10  1  0  0  0  0
  9 32  1  0  0  0  0
 10 11  2  0  0  0  0
 10 12  2  0  0  0  0
 10 13  1  0  0  0  0
 13 14  2  0  0  0  0
 13 33  1  0  0  0  0
 14 15  1  0  0  0  0
 14 34  1  0  0  0  0
 15 16  2  0  0  0  0
 15 20  1  0  0  0  0
 16 17  1  0  0  0  0
 16 35  1  0  0  0  0
 17 18  2  0  0  0  0
 17 36  1  0  0  0  0
 18 19  1  0  0  0  0
 18 21  1  0  0  0  0
 19 20  2  0  0  0  0
 19 37  1  0  0  0  0
 20 38  1  0  0  0  0
 21 22  1  0  0  0  0
 22 39  1  0  0  0  0
 22 40  1  0  0  0  0
 22 41  1  0  0  0  0
M  END
