
 OpenBabel10072619423D

 41 44  0  0  0  0  0  0  0  0999 V2000
    3.8242    0.7933    3.3758 C   0  0  0  0  0  0  0  0  0  0  0  0
    4.0639    0.3915    1.9754 C   0  0  0  0  0  0  0  0  0  0  0  0
    4.2478   -0.8275    1.5058 N   0  0  0  0  0  0  0  0  0  0  0  0
    4.4587   -0.7312    0.1456 N   0  0  0  0  0  0  0  0  0  0  0  0
    4.3934    0.5408   -0.1811 C   0  0  0  0  0  0  0  0  0  0  0  0
    4.1342    1.2936    0.9417 N   0  0  0  0  0  0  0  0  0  0  0  0
    3.9975    2.6502    1.0203 N   0  0  0  0  0  0  0  0  0  0  0  0
    4.1365    3.2648   -0.1206 C   0  0  0  0  0  0  0  0  0  0  0  0
    4.3884    2.5600   -1.4218 C   0  0  0  0  0  0  0  0  0  0  0  0
    4.5185    1.2262   -1.4040 C   0  0  0  0  0  0  0  0  0  0  0  0
    4.0462    4.7649   -0.1358 C   0  0  0  0  0  0  0  0  0  0  0  0
    4.5415    5.5455   -1.1865 C   0  0  0  0  0  0  0  0  0  0  0  0
    4.4534    6.9408   -1.1331 C   0  0  0  0  0  0  0  0  0  0  0  0
    3.8826    7.5718   -0.0298 C   0  0  0  0  0  0  0  0  0  0  0  0
    3.3997    6.8111    1.0307 C   0  0  0  0  0  0  0  0  0  0  0  0
    3.4835    5.4150    0.9775 C   0  0  0  0  0  0  0  0  0  0  0  0
    3.7618    8.9878   -0.0052 N   0  0  0  0  0  0  0  0  0  0  0  0
    2.6314    9.7205   -1.0313 S   0  0  0  0  0  0  0  0  0  0  0  0
    2.6077   11.1303   -0.7045 O   0  0  0  0  0  0  0  0  0  0  0  0
    2.8732    9.2764   -2.3879 O   0  0  0  0  0  0  0  0  0  0  0  0
    1.0920    9.0402   -0.5125 C   0  0  0  0  0  0  0  0  0  0  0  0
    0.6811    9.2420    0.8013 C   0  0  0  0  0  0  0  0  0  0  0  0
   -0.5494    8.7553    1.2368 C   0  0  0  0  0  0  0  0  0  0  0  0
   -1.3658    8.0544    0.3478 C   0  0  0  0  0  0  0  0  0  0  0  0
   -0.9394    7.8484   -0.9630 C   0  0  0  0  0  0  0  0  0  0  0  0
    0.2821    8.3403   -1.4094 C   0  0  0  0  0  0  0  0  0  0  0  0
   -1.7267    7.1751   -1.8111 F   0  0  0  0  0  0  0  0  0  0  0  0
    1.4669    9.8794    1.6803 F   0  0  0  0  0  0  0  0  0  0  0  0
    3.8017   -0.0814    4.0323 H   0  0  0  0  0  0  0  0  0  0  0  0
    2.8666    1.3141    3.4715 H   0  0  0  0  0  0  0  0  0  0  0  0
    4.6182    1.4588    3.7287 H   0  0  0  0  0  0  0  0  0  0  0  0
    4.4403    3.0960   -2.3575 H   0  0  0  0  0  0  0  0  0  0  0  0
    4.7030    0.6565   -2.3083 H   0  0  0  0  0  0  0  0  0  0  0  0
    5.0284    5.1092   -2.0524 H   0  0  0  0  0  0  0  0  0  0  0  0
    4.8519    7.5317   -1.9555 H   0  0  0  0  0  0  0  0  0  0  0  0
    2.9605    7.2827    1.9056 H   0  0  0  0  0  0  0  0  0  0  0  0
    3.1062    4.8386    1.8206 H   0  0  0  0  0  0  0  0  0  0  0  0
    3.7952    9.4560    0.9016 H   0  0  0  0  0  0  0  0  0  0  0  0
   -0.8692    8.9310    2.2604 H   0  0  0  0  0  0  0  0  0  0  0  0
   -2.3329    7.6723    0.6631 H   0  0  0  0  0  0  0  0  0  0  0  0
    0.5757    8.1850   -2.4435 H   0  0  0  0  0  0  0  0  0  0  0  0
  1  2  1  0  0  0  0
  1 29  1  0  0  0  0
  1 30  1  0  0  0  0
  1 31  1  0  0  0  0
  2  3  2  0  0  0  0
  2  6  1  0  0  0  0
  3  4  1  0  0  0  0
  4  5  2  0  0  0  0
  5  6  1  0  0  0  0
  5 10  1  0  0  0  0
  6  7  1  0  0  0  0
  7  8  2  0  0  0  0
  8  9  1  0  0  0  0
  8 11  1  0  0  0  0
  9 10  2  0  0  0  0
  9 32  1  0  0  0  0
 10 33  1  0  0  0  0
 11 12  2  0  0  0  0
 11 16  1  0  0  0  0
 12 13  1  0  0  0  0
 12 34  1  0  0  0  0
 13 14  2  0  0  0  0
 13 35  1  0  0  0  0
 14 15  1  0  0  0  0
 14 17  1  0  0  0  0
 15 16  2  0  0  0  0
 15 36  1  0  0  0  0
 16 37  1  0  0  0  0
 17 18  1  0  0  0  0
 17 38  1  0  0  0  0
 18 19  2  0  0  0  0
 18 20  2  0  0  0  0
 18 21  1  0  0  0  0
 21 22  2  0  0  0  0
 21 26  1  0  0  0  0
 22 23  1  0  0  0  0
 22 28  1  0  0  0  0
 23 24  2  0  0  0  0
 23 39  1  0  0  0  0
 24 25  1  0  0  0  0
 24 40  1  0  0  0  0
 25 26  2  0  0  0  0
 25 27  1  0  0  0  0
 26 41  1  0  0  0  0
M  END
