
 OpenBabel10072620183D

 63 62  0  0  0  0  0  0  0  0999 V2000
    0.8632    1.0641    1.6386 C   0  0  0  0  0  0  0  0  0  0  0  0
    2.3705    1.0245    1.8278 C   0  0  0  0  0  0  0  0  0  0  0  0
    2.8735   -0.4112    1.9682 C   0  0  0  0  0  0  0  0  0  0  0  0
    4.3918   -0.4513    2.1434 C   0  0  0  0  0  0  0  0  0  0  0  0
    4.8970   -1.8900    2.2527 C   0  0  0  0  0  0  0  0  0  0  0  0
    6.4211   -1.9382    2.3715 C   0  0  0  0  0  0  0  0  0  0  0  0
    6.9190   -3.3821    2.4313 C   0  0  0  0  0  0  0  0  0  0  0  0
    8.4448   -3.4487    2.5240 C   0  0  0  0  0  0  0  0  0  0  0  0
    8.9177   -4.9041    2.5589 C   0  0  0  0  0  0  0  0  0  0  0  0
   10.4138   -5.0120    2.6226 C   0  0  0  0  0  0  0  0  0  0  0  0
   11.1334   -5.8918    3.3519 C   0  0  0  0  0  0  0  0  0  0  0  0
   10.5420   -6.9603    4.2518 C   0  0  0  0  0  0  0  0  0  0  0  0
    9.6813   -8.0281    3.5622 C   0  0  0  0  0  0  0  0  0  0  0  0
   10.3804   -8.7481    2.4073 C   0  0  0  0  0  0  0  0  0  0  0  0
    9.4157   -9.7126    1.7131 C   0  0  0  0  0  0  0  0  0  0  0  0
   10.0726  -10.4009    0.5179 C   0  0  0  0  0  0  0  0  0  0  0  0
    9.0783  -11.2804   -0.2238 C   0  0  0  0  0  0  0  0  0  0  0  0
   12.6464   -5.8635    3.3054 C   0  0  0  0  0  0  0  0  0  0  0  0
   13.1352   -5.3278    4.5705 N   0  0  0  0  0  0  0  0  0  0  0  0
   14.4038   -5.3574    4.7740 C   0  0  0  0  0  0  0  0  0  0  0  0
   15.3794   -5.7958    3.9313 N   0  0  0  0  0  0  0  0  0  0  0  0
   14.9094   -4.8858    5.9640 N   0  0  0  0  0  0  0  0  0  0  0  0
   16.1906   -5.3281    6.3814 N   0  0  0  0  0  0  0  0  0  0  0  0
    0.5203    2.0982    1.5370 H   0  0  0  0  0  0  0  0  0  0  0  0
    0.3503    0.6169    2.4960 H   0  0  0  0  0  0  0  0  0  0  0  0
    0.5670    0.5170    0.7379 H   0  0  0  0  0  0  0  0  0  0  0  0
    2.6389    1.6028    2.7196 H   0  0  0  0  0  0  0  0  0  0  0  0
    2.8546    1.5069    0.9707 H   0  0  0  0  0  0  0  0  0  0  0  0
    2.5920   -0.9866    1.0775 H   0  0  0  0  0  0  0  0  0  0  0  0
    2.3894   -0.8899    2.8285 H   0  0  0  0  0  0  0  0  0  0  0  0
    4.6762    0.1083    3.0431 H   0  0  0  0  0  0  0  0  0  0  0  0
    4.8717    0.0414    1.2888 H   0  0  0  0  0  0  0  0  0  0  0  0
    4.5801   -2.4578    1.3690 H   0  0  0  0  0  0  0  0  0  0  0  0
    4.4452   -2.3747    3.1270 H   0  0  0  0  0  0  0  0  0  0  0  0
    6.7386   -1.4000    3.2729 H   0  0  0  0  0  0  0  0  0  0  0  0
    6.8739   -1.4281    1.5123 H   0  0  0  0  0  0  0  0  0  0  0  0
    6.5842   -3.9222    1.5369 H   0  0  0  0  0  0  0  0  0  0  0  0
    6.4745   -3.8879    3.2973 H   0  0  0  0  0  0  0  0  0  0  0  0
    8.7844   -2.9233    3.4251 H   0  0  0  0  0  0  0  0  0  0  0  0
    8.8860   -2.9312    1.6626 H   0  0  0  0  0  0  0  0  0  0  0  0
    8.5784   -5.4153    1.6498 H   0  0  0  0  0  0  0  0  0  0  0  0
    8.4470   -5.3982    3.4146 H   0  0  0  0  0  0  0  0  0  0  0  0
   10.9531   -4.2950    2.0042 H   0  0  0  0  0  0  0  0  0  0  0  0
    9.9479   -6.4711    5.0343 H   0  0  0  0  0  0  0  0  0  0  0  0
   11.3497   -7.4769    4.7865 H   0  0  0  0  0  0  0  0  0  0  0  0
    8.7478   -7.5851    3.2013 H   0  0  0  0  0  0  0  0  0  0  0  0
    9.3862   -8.7691    4.3162 H   0  0  0  0  0  0  0  0  0  0  0  0
   11.2512   -9.2968    2.7854 H   0  0  0  0  0  0  0  0  0  0  0  0
   10.7449   -8.0222    1.6718 H   0  0  0  0  0  0  0  0  0  0  0  0
    8.5312   -9.1600    1.3720 H   0  0  0  0  0  0  0  0  0  0  0  0
    9.0668  -10.4673    2.4291 H   0  0  0  0  0  0  0  0  0  0  0  0
   10.9183  -11.0099    0.8580 H   0  0  0  0  0  0  0  0  0  0  0  0
   10.4684   -9.6508   -0.1771 H   0  0  0  0  0  0  0  0  0  0  0  0
    8.6723  -12.0575    0.4312 H   0  0  0  0  0  0  0  0  0  0  0  0
    9.5642  -11.7715   -1.0724 H   0  0  0  0  0  0  0  0  0  0  0  0
    8.2432  -10.6851   -0.6079 H   0  0  0  0  0  0  0  0  0  0  0  0
   12.9923   -5.2378    2.4731 H   0  0  0  0  0  0  0  0  0  0  0  0
   13.0166   -6.8809    3.1280 H   0  0  0  0  0  0  0  0  0  0  0  0
   15.2262   -5.5568    2.9623 H   0  0  0  0  0  0  0  0  0  0  0  0
   16.2755   -5.4571    4.2762 H   0  0  0  0  0  0  0  0  0  0  0  0
   14.1688   -4.7519    6.6553 H   0  0  0  0  0  0  0  0  0  0  0  0
   16.1377   -6.3227    6.6218 H   0  0  0  0  0  0  0  0  0  0  0  0
   16.4657   -4.8404    7.2367 H   0  0  0  0  0  0  0  0  0  0  0  0
  1  2  1  0  0  0  0
  1 24  1  0  0  0  0
  1 25  1  0  0  0  0
  1 26  1  0  0  0  0
  2  3  1  0  0  0  0
  2 27  1  0  0  0  0
  2 28  1  0  0  0  0
  3  4  1  0  0  0  0
  3 29  1  0  0  0  0
  3 30  1  0  0  0  0
  4  5  1  0  0  0  0
  4 31  1  0  0  0  0
  4 32  1  0  0  0  0
  5  6  1  0  0  0  0
  5 33  1  0  0  0  0
  5 34  1  0  0  0  0
  6  7  1  0  0  0  0
  6 35  1  0  0  0  0
  6 36  1  0  0  0  0
  7  8  1  0  0  0  0
  7 37  1  0  0  0  0
  7 38  1  0  0  0  0
  8  9  1  0  0  0  0
  8 39  1  0  0  0  0
  8 40  1  0  0  0  0
  9 10  1  0  0  0  0
  9 41  1  0  0  0  0
  9 42  1  0  0  0  0
 10 11  2  0  0  0  0
 10 43  1  0  0  0  0
 11 12  1  0  0  0  0
 11 18  1  0  0  0  0
 12 13  1  0  0  0  0
 12 44  1  0  0  0  0
 12 45  1  0  0  0  0
 13 14  1  0  0  0  0
 13 46  1  0  0  0  0
 13 47  1  0  0  0  0
 14 15  1  0  0  0  0
 14 48  1  0  0  0  0
 14 49  1  0  0  0  0
 15 16  1  0  0  0  0
 15 50  1  0  0  0  0
 15 51  1  0  0  0  0
 16 17  1  0  0  0  0
 16 52  1  0  0  0  0
 16 53  1  0  0  0  0
 17 54  1  0  0  0  0
 17 55  1  0  0  0  0
 17 56  1  0  0  0  0
 18 19  1  0  0  0  0
 18 57  1  0  0  0  0
 18 58  1  0  0  0  0
 19 20  2  3  0  0  0
 20 21  1  0  0  0  0
 20 22  1  0  0  0  0
 21 59  1  0  0  0  0
 21 60  1  0  0  0  0
 22 23  1  0  0  0  0
 22 61  1  0  0  0  0
 23 62  1  0  0  0  0
 23 63  1  0  0  0  0
M  END
