
 OpenBabel10072619423D

 36 38  0  0  1  0  0  0  0  0999 V2000
    1.7184    1.0792    0.5659 C   0  0  0  0  0  0  0  0  0  0  0  0
    3.0977    0.5422    0.2655 C   0  0  0  0  0  0  0  0  0  0  0  0
    3.4368   -0.8415    0.2296 C   0  0  0  0  0  0  0  0  0  0  0  0
    4.7713   -1.1590   -0.0057 N   0  3  0  0  0  0  0  0  0  0  0  0
    5.7106   -0.2114   -0.2395 C   0  0  0  0  0  0  0  0  0  0  0  0
    5.4026    1.1277   -0.2488 C   0  0  0  0  0  0  0  0  0  0  0  0
    4.0981    1.5024    0.0186 C   0  0  0  0  0  0  0  0  0  0  0  0
    5.2684   -2.5594    0.0311 C   0  0  0  0  0  0  0  0  0  0  0  0
    2.4943   -1.9868    0.5981 C   0  0  0  0  0  0  0  0  0  0  0  0
    0.9648   -2.1118    0.3018 C   0  0  3  0  0  0  0  0  0  0  0  0
    0.3895   -1.6342   -1.0063 C   0  0  0  0  0  0  0  0  0  0  0  0
   -0.8398   -1.0899   -1.1052 C   0  0  0  0  0  0  0  0  0  0  0  0
   -1.6100   -0.8728    0.0270 N   0  0  0  0  0  0  0  0  0  0  0  0
   -1.1521   -1.1499    1.2696 C   0  0  0  0  0  0  0  0  0  0  0  0
   -1.6987   -1.0298    2.4505 N   0  0  0  0  0  0  0  0  0  0  0  0
   -0.7223   -1.4858    3.3026 C   0  0  0  0  0  0  0  0  0  0  0  0
    0.4165   -1.8760    2.7122 N   0  0  0  0  0  0  0  0  0  0  0  0
    0.1106   -1.6767    1.4173 N   0  0  0  0  0  0  0  0  0  0  0  0
    1.1768   -1.8476   -2.1940 N   0  3  0  0  0  0  0  0  0  0  0  0
    2.0117   -2.7577   -2.1600 O   0  0  0  0  0  0  0  0  0  0  0  0
    1.0235   -1.0614   -3.1362 O   0  5  0  0  0  0  0  0  0  0  0  0
    1.3007    0.6019    1.4513 H   0  0  0  0  0  0  0  0  0  0  0  0
    1.0554    0.9508   -0.2936 H   0  0  0  0  0  0  0  0  0  0  0  0
    1.7285    2.1528    0.7952 H   0  0  0  0  0  0  0  0  0  0  0  0
    6.7367   -0.5389   -0.4014 H   0  0  0  0  0  0  0  0  0  0  0  0
    6.1818    1.8629   -0.4442 H   0  0  0  0  0  0  0  0  0  0  0  0
    3.8693    2.5684    0.0621 H   0  0  0  0  0  0  0  0  0  0  0  0
    5.0089   -2.9753    1.0081 H   0  0  0  0  0  0  0  0  0  0  0  0
    6.3572   -2.5837   -0.0831 H   0  0  0  0  0  0  0  0  0  0  0  0
    4.8178   -3.1018   -0.8035 H   0  0  0  0  0  0  0  0  0  0  0  0
    2.6739   -2.1779    1.6644 H   0  0  0  0  0  0  0  0  0  0  0  0
    2.8917   -2.8779    0.1005 H   0  0  0  0  0  0  0  0  0  0  0  0
    0.7692   -3.1975    0.3072 H   0  0  0  0  0  0  0  0  0  0  0  0
   -1.3203   -0.7945   -2.0394 H   0  0  0  0  0  0  0  0  0  0  0  0
   -2.5725   -0.5476   -0.0901 H   0  0  0  0  0  0  0  0  0  0  0  0
   -0.8515   -1.5222    4.3802 H   0  0  0  0  0  0  0  0  0  0  0  0
  1  2  1  0  0  0  0
  1 22  1  0  0  0  0
  1 23  1  0  0  0  0
  1 24  1  0  0  0  0
  2  3  2  0  0  0  0
  2  7  1  0  0  0  0
  3  4  1  0  0  0  0
  3  9  1  0  0  0  0
  4  5  2  0  0  0  0
  4  8  1  0  0  0  0
  5  6  1  0  0  0  0
  5 25  1  0  0  0  0
  6  7  2  0  0  0  0
  6 26  1  0  0  0  0
  7 27  1  0  0  0  0
  8 28  1  0  0  0  0
  8 29  1  0  0  0  0
  8 30  1  0  0  0  0
  9 10  1  0  0  0  0
  9 31  1  0  0  0  0
  9 32  1  0  0  0  0
 10 11  1  0  0  0  0
 10 18  1  0  0  0  0
 10 33  1  0  0  0  0
 11 12  2  0  0  0  0
 11 19  1  0  0  0  0
 12 13  1  0  0  0  0
 12 34  1  0  0  0  0
 13 14  1  0  0  0  0
 13 35  1  0  0  0  0
 14 15  2  0  0  0  0
 14 18  1  0  0  0  0
 15 16  1  0  0  0  0
 16 17  2  0  0  0  0
 16 36  1  0  0  0  0
 17 18  1  0  0  0  0
 19 20  2  0  0  0  0
 19 21  1  0  0  0  0
M  CHG  3   4   1  19   1  21  -1
M  END
