
 OpenBabel10072616443D

 66 71  0  0  0  0  0  0  0  0999 V2000
    0.3549    1.5007    3.2542 C   0  0  0  0  0  0  0  0  0  0  0  0
    0.2578    0.8396    2.0315 C   0  0  0  0  0  0  0  0  0  0  0  0
   -0.9963    0.5795    1.4605 C   0  0  0  0  0  0  0  0  0  0  0  0
   -2.1571    0.9626    2.1333 C   0  0  0  0  0  0  0  0  0  0  0  0
   -2.0603    1.6390    3.3529 C   0  0  0  0  0  0  0  0  0  0  0  0
   -0.8062    1.9078    3.9069 C   0  0  0  0  0  0  0  0  0  0  0  0
   -3.5120    0.7504    1.5913 C   0  0  0  0  0  0  0  0  0  0  0  0
   -3.7683    0.5512    0.3357 N   0  0  0  0  0  0  0  0  0  0  0  0
   -5.1171    0.7261   -0.0342 C   0  0  0  0  0  0  0  0  0  0  0  0
   -5.7754    1.9083    0.3236 C   0  0  0  0  0  0  0  0  0  0  0  0
   -7.0636    2.1808   -0.1232 C   0  0  0  0  0  0  0  0  0  0  0  0
   -7.6922    1.2997   -1.0064 C   0  0  0  0  0  0  0  0  0  0  0  0
   -7.0657    0.0842   -1.3394 C   0  0  0  0  0  0  0  0  0  0  0  0
   -5.7701   -0.1863   -0.8652 C   0  0  0  0  0  0  0  0  0  0  0  0
   -8.8335    1.8490   -1.7955 C   0  0  0  0  0  0  0  0  0  0  0  0
   -9.0230    3.1425   -1.8997 N   0  0  0  0  0  0  0  0  0  0  0  0
   -9.5508    3.5520   -3.1542 C   0  0  0  0  0  0  0  0  0  0  0  0
  -10.0164    4.8411   -3.3862 C   0  0  0  0  0  0  0  0  0  0  0  0
  -10.3153    5.2678   -4.6861 C   0  0  0  0  0  0  0  0  0  0  0  0
  -10.0802    4.4303   -5.7788 C   0  0  0  0  0  0  0  0  0  0  0  0
   -9.6456    3.1240   -5.5652 C   0  0  0  0  0  0  0  0  0  0  0  0
   -9.4494    2.6879   -4.2608 C   0  0  0  0  0  0  0  0  0  0  0  0
   -9.1564    1.2715   -3.9060 C   0  0  0  0  0  0  0  0  0  0  0  0
   -8.4622    0.5637   -4.6200 O   0  0  0  0  0  0  0  0  0  0  0  0
   -9.5286    0.9687   -2.5992 N   0  0  0  0  0  0  0  0  0  0  0  0
  -10.9844    0.8955   -2.3582 C   0  0  0  0  0  0  0  0  0  0  0  0
  -11.8498    0.1583   -3.1875 C   0  0  0  0  0  0  0  0  0  0  0  0
  -13.2500    0.2585   -3.0729 C   0  0  0  0  0  0  0  0  0  0  0  0
  -13.8384    1.1107   -2.1532 C   0  0  0  0  0  0  0  0  0  0  0  0
  -12.9936    1.7426   -1.2311 C   0  0  0  0  0  0  0  0  0  0  0  0
  -11.5952    1.6129   -1.3118 C   0  0  0  0  0  0  0  0  0  0  0  0
  -15.2200    1.4147   -2.0588 N   0  0  0  0  0  0  0  0  0  0  0  0
  -16.3592    1.0251   -2.7751 C   0  0  0  0  0  0  0  0  0  0  0  0
  -16.4441   -0.0013   -4.0970 S   0  0  0  0  0  0  0  0  0  0  0  0
  -17.4903    1.6881   -2.2483 N   0  0  0  0  0  0  0  0  0  0  0  0
  -18.8373    1.3626   -2.5345 C   0  0  0  0  0  0  0  0  0  0  0  0
  -19.3108    0.0522   -2.4479 C   0  0  0  0  0  0  0  0  0  0  0  0
  -20.6243   -0.2450   -2.8197 C   0  0  0  0  0  0  0  0  0  0  0  0
  -21.4769    0.7753   -3.2362 C   0  0  0  0  0  0  0  0  0  0  0  0
  -21.0278    2.0934   -3.2532 C   0  0  0  0  0  0  0  0  0  0  0  0
  -19.7120    2.3879   -2.8972 C   0  0  0  0  0  0  0  0  0  0  0  0
  -11.2703   -0.9246   -4.4009 Cl  0  0  0  0  0  0  0  0  0  0  0  0
    1.3303    1.7091    3.6917 H   0  0  0  0  0  0  0  0  0  0  0  0
    1.1665    0.5291    1.5222 H   0  0  0  0  0  0  0  0  0  0  0  0
   -1.0513    0.0736    0.5011 H   0  0  0  0  0  0  0  0  0  0  0  0
   -2.9538    1.9814    3.8704 H   0  0  0  0  0  0  0  0  0  0  0  0
   -0.7316    2.4452    4.8468 H   0  0  0  0  0  0  0  0  0  0  0  0
   -4.3404    0.8486    2.3167 H   0  0  0  0  0  0  0  0  0  0  0  0
   -5.2396    2.6545    0.9064 H   0  0  0  0  0  0  0  0  0  0  0  0
   -7.5425    3.1149    0.1556 H   0  0  0  0  0  0  0  0  0  0  0  0
   -7.5253   -0.6285   -2.0224 H   0  0  0  0  0  0  0  0  0  0  0  0
   -5.2466   -1.0825   -1.1864 H   0  0  0  0  0  0  0  0  0  0  0  0
  -10.1166    5.5379   -2.5630 H   0  0  0  0  0  0  0  0  0  0  0  0
  -10.6788    6.2778   -4.8558 H   0  0  0  0  0  0  0  0  0  0  0  0
  -10.2228    4.8018   -6.7903 H   0  0  0  0  0  0  0  0  0  0  0  0
   -9.4720    2.4636   -6.4079 H   0  0  0  0  0  0  0  0  0  0  0  0
  -13.8456   -0.3292   -3.7578 H   0  0  0  0  0  0  0  0  0  0  0  0
  -13.4105    2.3371   -0.4214 H   0  0  0  0  0  0  0  0  0  0  0  0
  -11.0069    2.1464   -0.5682 H   0  0  0  0  0  0  0  0  0  0  0  0
  -15.4396    2.0065   -1.2713 H   0  0  0  0  0  0  0  0  0  0  0  0
  -17.3598    2.6679   -2.0372 H   0  0  0  0  0  0  0  0  0  0  0  0
  -18.6499   -0.7361   -2.1003 H   0  0  0  0  0  0  0  0  0  0  0  0
  -20.9909   -1.2674   -2.7760 H   0  0  0  0  0  0  0  0  0  0  0  0
  -22.4960    0.5462   -3.5350 H   0  0  0  0  0  0  0  0  0  0  0  0
  -21.6963    2.8885   -3.5731 H   0  0  0  0  0  0  0  0  0  0  0  0
  -19.3660    3.4125   -2.9791 H   0  0  0  0  0  0  0  0  0  0  0  0
  1  2  2  0  0  0  0
  1  6  1  0  0  0  0
  1 43  1  0  0  0  0
  2  3  1  0  0  0  0
  2 44  1  0  0  0  0
  3  4  2  0  0  0  0
  3 45  1  0  0  0  0
  4  5  1  0  0  0  0
  4  7  1  0  0  0  0
  5  6  2  0  0  0  0
  5 46  1  0  0  0  0
  6 47  1  0  0  0  0
  7  8  2  3  0  0  0
  7 48  1  0  0  0  0
  8  9  1  0  0  0  0
  9 10  2  0  0  0  0
  9 14  1  0  0  0  0
 10 11  1  0  0  0  0
 10 49  1  0  0  0  0
 11 12  2  0  0  0  0
 11 50  1  0  0  0  0
 12 13  1  0  0  0  0
 12 15  1  0  0  0  0
 13 14  2  0  0  0  0
 13 51  1  0  0  0  0
 14 52  1  0  0  0  0
 15 16  2  0  0  0  0
 15 25  1  0  0  0  0
 16 17  1  0  0  0  0
 17 18  2  0  0  0  0
 17 22  1  0  0  0  0
 18 19  1  0  0  0  0
 18 53  1  0  0  0  0
 19 20  2  0  0  0  0
 19 54  1  0  0  0  0
 20 21  1  0  0  0  0
 20 55  1  0  0  0  0
 21 22  2  0  0  0  0
 21 56  1  0  0  0  0
 22 23  1  0  0  0  0
 23 24  2  0  0  0  0
 23 25  1  0  0  0  0
 25 26  1  0  0  0  0
 26 27  2  0  0  0  0
 26 31  1  0  0  0  0
 27 28  1  0  0  0  0
 27 42  1  0  0  0  0
 28 29  2  0  0  0  0
 28 57  1  0  0  0  0
 29 30  1  0  0  0  0
 29 32  1  0  0  0  0
 30 31  2  0  0  0  0
 30 58  1  0  0  0  0
 31 59  1  0  0  0  0
 32 33  1  0  0  0  0
 32 60  1  0  0  0  0
 33 34  2  0  0  0  0
 33 35  1  0  0  0  0
 35 36  1  0  0  0  0
 35 61  1  0  0  0  0
 36 37  2  0  0  0  0
 36 41  1  0  0  0  0
 37 38  1  0  0  0  0
 37 62  1  0  0  0  0
 38 39  2  0  0  0  0
 38 63  1  0  0  0  0
 39 40  1  0  0  0  0
 39 64  1  0  0  0  0
 40 41  2  0  0  0  0
 40 65  1  0  0  0  0
 41 66  1  0  0  0  0
M  END
