
 OpenBabel10072619533D

 20 21  0  0  0  0  0  0  0  0999 V2000
    2.5197   -0.4851   -0.0409 C   0  0  0  0  0  0  0  0  0  0  0  0
    2.3371    0.8944   -0.0500 C   0  0  0  0  0  0  0  0  0  0  0  0
    1.0534    1.4483   -0.0244 C   0  0  0  0  0  0  0  0  0  0  0  0
   -0.0456    0.5744    0.0106 C   0  0  0  0  0  0  0  0  0  0  0  0
    0.1126   -0.8128    0.0213 C   0  0  0  0  0  0  0  0  0  0  0  0
    1.4174   -1.3458   -0.0054 C   0  0  0  0  0  0  0  0  0  0  0  0
   -1.0651   -1.5424    0.0552 N   0  0  0  0  0  0  0  0  0  0  0  0
   -2.0890   -0.7232    0.0800 C   0  0  0  0  0  0  0  0  0  0  0  0
   -1.7267    0.9377    0.0421 S   0  0  0  0  0  0  0  0  0  0  0  0
   -3.3720   -1.2053    0.0974 N   0  0  0  0  0  0  0  0  0  0  0  0
   -4.5207   -0.4873    0.2409 C   0  0  0  0  0  0  0  0  0  0  0  0
   -4.6613    0.7103    0.4372 O   0  0  0  0  0  0  0  0  0  0  0  0
   -5.6315   -1.2798    0.1575 N   0  0  0  0  0  0  0  0  0  0  0  0
    3.5249   -0.8998   -0.0614 H   0  0  0  0  0  0  0  0  0  0  0  0
    3.2032    1.5528   -0.0777 H   0  0  0  0  0  0  0  0  0  0  0  0
    0.9108    2.5248   -0.0319 H   0  0  0  0  0  0  0  0  0  0  0  0
    1.5564   -2.4223    0.0015 H   0  0  0  0  0  0  0  0  0  0  0  0
   -3.4279   -2.2096    0.1434 H   0  0  0  0  0  0  0  0  0  0  0  0
   -5.6213   -2.0282   -0.5203 H   0  0  0  0  0  0  0  0  0  0  0  0
   -6.4917   -0.7435    0.1714 H   0  0  0  0  0  0  0  0  0  0  0  0
  1  2  2  0  0  0  0
  1  6  1  0  0  0  0
  1 14  1  0  0  0  0
  2  3  1  0  0  0  0
  2 15  1  0  0  0  0
  3  4  2  0  0  0  0
  3 16  1  0  0  0  0
  4  5  1  0  0  0  0
  4  9  1  0  0  0  0
  5  6  2  0  0  0  0
  5  7  1  0  0  0  0
  6 17  1  0  0  0  0
  7  8  2  0  0  0  0
  8  9  1  0  0  0  0
  8 10  1  0  0  0  0
 10 11  1  0  0  0  0
 10 18  1  0  0  0  0
 11 12  2  0  0  0  0
 11 13  1  0  0  0  0
 13 19  1  0  0  0  0
 13 20  1  0  0  0  0
M  END
