
 OpenBabel10072619523D

 31 31  0  0  1  0  0  0  0  0999 V2000
    2.3615   -1.4401   -0.1466 C   0  0  0  0  0  0  0  0  0  0  0  0
    0.8904   -1.2978    0.2397 C   0  0  0  0  0  0  0  0  0  0  0  0
    0.2818   -0.0349   -0.3598 C   0  0  3  0  0  0  0  0  0  0  0  0
    1.0736    1.2144    0.0123 C   0  0  0  0  0  0  0  0  0  0  0  0
    2.5444    1.0708   -0.3762 C   0  0  0  0  0  0  0  0  0  0  0  0
    3.1713   -0.1911    0.2301 C   0  0  3  0  0  0  0  0  0  0  0  0
    4.5559   -0.3209   -0.2030 N   0  0  0  0  0  0  0  0  0  0  0  0
    5.4847   -1.0357    0.5252 C   0  0  0  0  0  0  0  0  0  0  0  0
    5.2038   -1.5306    1.6184 O   0  0  0  0  0  0  0  0  0  0  0  0
    6.7581   -1.1492   -0.0347 N   0  0  0  0  0  0  0  0  0  0  0  0
    7.7871   -1.8851    0.7027 C   0  0  0  0  0  0  0  0  0  0  0  0
    7.5805   -3.3998    0.6980 C   0  0  0  0  0  0  0  0  0  0  0  0
    7.7443   -4.0997   -0.9316 Cl  0  0  0  0  0  0  0  0  0  0  0  0
    7.0415   -0.5421   -1.2647 N   0  0  0  0  0  0  0  0  0  0  0  0
    8.1905   -0.7241   -1.6766 O   0  0  0  0  0  0  0  0  0  0  0  0
   -1.5581    0.1546    0.2701 Br  0  0  0  0  0  0  0  0  0  0  0  0
    2.4370   -1.6184   -1.2273 H   0  0  0  0  0  0  0  0  0  0  0  0
    2.7806   -2.3275    0.3425 H   0  0  0  0  0  0  0  0  0  0  0  0
    0.8080   -1.2807    1.3342 H   0  0  0  0  0  0  0  0  0  0  0  0
    0.3391   -2.1830   -0.0994 H   0  0  0  0  0  0  0  0  0  0  0  0
    0.2086   -0.1277   -1.4491 H   0  0  0  0  0  0  0  0  0  0  0  0
    1.0066    1.4037    1.0916 H   0  0  0  0  0  0  0  0  0  0  0  0
    0.6500    2.0958   -0.4846 H   0  0  0  0  0  0  0  0  0  0  0  0
    3.0991    1.9584   -0.0473 H   0  0  0  0  0  0  0  0  0  0  0  0
    2.6283    1.0413   -1.4705 H   0  0  0  0  0  0  0  0  0  0  0  0
    3.1704   -0.0915    1.3232 H   0  0  0  0  0  0  0  0  0  0  0  0
    4.7451   -0.1939   -1.1878 H   0  0  0  0  0  0  0  0  0  0  0  0
    7.7429   -1.5427    1.7450 H   0  0  0  0  0  0  0  0  0  0  0  0
    8.7929   -1.6308    0.3492 H   0  0  0  0  0  0  0  0  0  0  0  0
    6.5934   -3.6804    1.0748 H   0  0  0  0  0  0  0  0  0  0  0  0
    8.3347   -3.8791    1.3300 H   0  0  0  0  0  0  0  0  0  0  0  0
  1  2  1  0  0  0  0
  1  6  1  0  0  0  0
  1 17  1  0  0  0  0
  1 18  1  0  0  0  0
  2  3  1  0  0  0  0
  2 19  1  0  0  0  0
  2 20  1  0  0  0  0
  3  4  1  0  0  0  0
  3 16  1  0  0  0  0
  3 21  1  0  0  0  0
  4  5  1  0  0  0  0
  4 22  1  0  0  0  0
  4 23  1  0  0  0  0
  5  6  1  0  0  0  0
  5 24  1  0  0  0  0
  5 25  1  0  0  0  0
  6  7  1  0  0  0  0
  6 26  1  0  0  0  0
  7  8  1  0  0  0  0
  7 27  1  0  0  0  0
  8  9  2  0  0  0  0
  8 10  1  0  0  0  0
 10 11  1  0  0  0  0
 10 14  1  0  0  0  0
 11 12  1  0  0  0  0
 11 28  1  0  0  0  0
 11 29  1  0  0  0  0
 12 13  1  0  0  0  0
 12 30  1  0  0  0  0
 12 31  1  0  0  0  0
 14 15  2  0  0  0  0
M  END
