
 OpenBabel10072619483D

 54 58  0  0  1  0  0  0  0  0999 V2000
   12.4707    3.2377   -2.4549 C   0  0  0  0  0  0  0  0  0  0  0  0
   11.6614    2.6895   -1.4267 O   0  0  0  0  0  0  0  0  0  0  0  0
   10.5739    2.0223   -2.0017 N   0  0  0  0  0  0  0  0  0  0  0  0
    9.8225    1.3984   -1.1265 C   0  0  0  0  0  0  0  0  0  0  0  0
   10.0681    1.3392    0.3305 C   0  0  0  0  0  0  0  0  0  0  0  0
    9.1485    0.9086    1.2755 C   0  0  0  0  0  0  0  0  0  0  0  0
    9.8029    0.9924    2.8572 S   0  0  0  0  0  0  0  0  0  0  0  0
   11.2617    1.5994    2.2069 C   0  0  0  0  0  0  0  0  0  0  0  0
   11.2866    1.7182    0.9067 N   0  0  0  0  0  0  0  0  0  0  0  0
   12.3058    1.9144    2.9882 N   0  0  0  0  0  0  0  0  0  0  0  0
    8.5722    0.7289   -1.7415 C   0  0  0  0  0  0  0  0  0  0  0  0
    7.9358   -0.1242   -1.1419 O   0  0  0  0  0  0  0  0  0  0  0  0
    8.2257    1.2087   -2.9898 N   0  0  0  0  0  0  0  0  0  0  0  0
    7.0241    0.7086   -3.7052 C   0  0  1  0  0  0  0  0  0  0  0  0
    6.5759    1.4494   -4.9958 C   0  0  2  0  0  0  0  0  0  0  0  0
    6.9363    0.2563   -5.7185 N   0  0  0  0  0  0  0  0  0  0  0  0
    7.2226   -0.5254   -4.6577 C   0  0  0  0  0  0  0  0  0  0  0  0
    7.5714   -1.6756   -4.5521 O   0  0  0  0  0  0  0  0  0  0  0  0
    6.8300    0.1363   -7.0643 C   0  0  0  0  0  0  0  0  0  0  0  0
    6.7931    1.2409   -7.8492 C   0  0  0  0  0  0  0  0  0  0  0  0
    6.9222    2.6577   -7.3344 C   0  0  0  0  0  0  0  0  0  0  0  0
    7.6162    2.7915   -5.6452 S   0  0  0  0  0  0  0  0  0  0  0  0
    6.6064    1.1256   -9.3431 C   0  0  0  0  0  0  0  0  0  0  0  0
    7.8931    1.1363  -10.0444 N   0  3  0  0  0  0  0  0  0  0  0  0
    9.0235    0.5623   -9.5845 C   0  0  0  0  0  0  0  0  0  0  0  0
    9.9265    0.5895  -10.5773 N   0  0  0  0  0  0  0  0  0  0  0  0
   11.2100    0.0826  -10.5824 C   0  0  0  0  0  0  0  0  0  0  0  0
   11.9285    0.1920  -11.7164 C   0  0  0  0  0  0  0  0  0  0  0  0
   11.3980    0.8120  -12.9286 C   0  0  0  0  0  0  0  0  0  0  0  0
   10.1383    1.2844  -12.9645 C   0  0  0  0  0  0  0  0  0  0  0  0
    9.3611    1.1595  -11.7097 C   0  0  0  0  0  0  0  0  0  0  0  0
    8.0776    1.4933  -11.3735 C   0  0  0  0  0  0  0  0  0  0  0  0
    6.7876   -1.2555   -7.7672 C   0  0  0  0  0  0  0  0  0  0  0  0
    7.8878   -1.5909   -8.2955 O   0  0  0  0  0  0  0  0  0  0  0  0
    5.6190   -1.6902   -7.9561 O   0  5  0  0  0  0  0  0  0  0  0  0
   13.3286    3.7329   -1.9926 H   0  0  0  0  0  0  0  0  0  0  0  0
   11.9040    3.9785   -3.0265 H   0  0  0  0  0  0  0  0  0  0  0  0
   12.8367    2.4453   -3.1146 H   0  0  0  0  0  0  0  0  0  0  0  0
    8.1384    0.5506    1.1370 H   0  0  0  0  0  0  0  0  0  0  0  0
   12.3687    1.4752    3.8973 H   0  0  0  0  0  0  0  0  0  0  0  0
   13.1907    2.0105    2.5035 H   0  0  0  0  0  0  0  0  0  0  0  0
    8.8814    1.8505   -3.4326 H   0  0  0  0  0  0  0  0  0  0  0  0
    6.1881    0.5692   -3.0080 H   0  0  0  0  0  0  0  0  0  0  0  0
    5.4994    1.6573   -5.0241 H   0  0  0  0  0  0  0  0  0  0  0  0
    5.9425    3.1471   -7.3554 H   0  0  0  0  0  0  0  0  0  0  0  0
    7.5902    3.2293   -7.9873 H   0  0  0  0  0  0  0  0  0  0  0  0
    6.0096    1.9727   -9.7043 H   0  0  0  0  0  0  0  0  0  0  0  0
    6.0648    0.2285   -9.6558 H   0  0  0  0  0  0  0  0  0  0  0  0
    9.2126    0.1772   -8.5910 H   0  0  0  0  0  0  0  0  0  0  0  0
   11.5786   -0.3953   -9.6790 H   0  0  0  0  0  0  0  0  0  0  0  0
   12.9370   -0.2076  -11.7586 H   0  0  0  0  0  0  0  0  0  0  0  0
   12.0427    0.8575  -13.8007 H   0  0  0  0  0  0  0  0  0  0  0  0
    9.7015    1.7303  -13.8493 H   0  0  0  0  0  0  0  0  0  0  0  0
    7.2523    1.9199  -11.9146 H   0  0  0  0  0  0  0  0  0  0  0  0
  1  2  1  0  0  0  0
  1 36  1  0  0  0  0
  1 37  1  0  0  0  0
  1 38  1  0  0  0  0
  2  3  1  0  0  0  0
  3  4  2  0  0  0  0
  4  5  1  0  0  0  0
  4 11  1  0  0  0  0
  5  6  2  0  0  0  0
  5  9  1  0  0  0  0
  6  7  1  0  0  0  0
  6 39  1  0  0  0  0
  7  8  1  0  0  0  0
  8  9  2  0  0  0  0
  8 10  1  0  0  0  0
 10 40  1  0  0  0  0
 10 41  1  0  0  0  0
 11 12  2  0  0  0  0
 11 13  1  0  0  0  0
 13 42  1  0  0  0  0
 14 15  1  0  0  0  0
 14 17  1  0  0  0  0
 14 13  1  0  0  0  0
 14 43  1  1  0  0  0
 15 16  1  0  0  0  0
 15 22  1  0  0  0  0
 15 44  1  6  0  0  0
 16 17  1  0  0  0  0
 16 19  1  0  0  0  0
 17 18  2  0  0  0  0
 19 20  2  0  0  0  0
 19 33  1  0  0  0  0
 20 21  1  0  0  0  0
 20 23  1  0  0  0  0
 21 22  1  0  0  0  0
 21 45  1  0  0  0  0
 21 46  1  0  0  0  0
 23 24  1  0  0  0  0
 23 47  1  0  0  0  0
 23 48  1  0  0  0  0
 24 25  2  0  0  0  0
 24 32  1  0  0  0  0
 25 26  1  0  0  0  0
 25 49  1  0  0  0  0
 26 27  1  0  0  0  0
 26 31  1  0  0  0  0
 27 28  2  0  0  0  0
 27 50  1  0  0  0  0
 28 29  1  0  0  0  0
 28 51  1  0  0  0  0
 29 30  2  0  0  0  0
 29 52  1  0  0  0  0
 30 31  1  0  0  0  0
 30 53  1  0  0  0  0
 31 32  2  0  0  0  0
 32 54  1  0  0  0  0
 33 34  2  0  0  0  0
 33 35  1  0  0  0  0
M  CHG  2  24   1  35  -1
M  END
