
 OpenBabel10072620233D

 86 88  0  0  1  0  0  0  0  0999 V2000
    1.2196    1.8743   -0.6830 C   0  0  0  0  0  0  0  0  0  0  0  0
    1.9080    0.5725   -1.0568 C   0  0  3  0  0  0  0  0  0  0  0  0
    1.8893   -0.5230    0.0204 C   0  0  3  0  0  0  0  0  0  0  0  0
    3.3672   -0.6766    0.4185 C   0  0  3  0  0  0  0  0  0  0  0  0
    3.9674    0.6712   -0.0322 C   0  0  3  0  0  0  0  0  0  0  0  0
    3.3090    0.8978   -1.2900 O   0  0  0  0  0  0  0  0  0  0  0  0
    5.3922    0.6626   -0.0968 O   0  0  0  0  0  0  0  0  0  0  0  0
    6.0069    1.9417   -0.3824 C   0  0  3  0  0  0  0  0  0  0  0  0
    7.4237    1.6696   -0.9670 C   0  0  3  0  0  0  0  0  0  0  0  0
    8.4059    1.1441    0.1177 C   0  0  3  0  0  0  0  0  0  0  0  0
    8.4487    1.9498    1.4354 C   0  0  3  0  0  0  0  0  0  0  0  0
    7.0215    2.2142    1.9394 C   0  0  3  0  0  0  0  0  0  0  0  0
    6.1428    2.8522    0.8557 C   0  0  3  0  0  0  0  0  0  0  0  0
    4.8702    3.1803    1.4353 O   0  0  0  0  0  0  0  0  0  0  0  0
    7.0521    3.1037    3.0721 O   0  0  0  0  0  0  0  0  0  0  0  0
    9.1323    3.2727    1.3172 N   0  0  0  0  0  0  0  0  0  0  0  0
   10.4107    3.3020    1.3817 C   0  0  0  0  0  0  0  0  0  0  0  0
   11.2661    2.2597    1.4753 N   0  0  0  0  0  0  0  0  0  0  0  0
   11.0674    4.4841    1.3829 N   0  0  0  0  0  0  0  0  0  0  0  0
    9.7303    1.0414   -0.4361 O   0  0  0  0  0  0  0  0  0  0  0  0
    8.0152    2.8836   -1.5642 N   0  0  0  0  0  0  0  0  0  0  0  0
    7.5730    3.3144   -2.6892 C   0  0  0  0  0  0  0  0  0  0  0  0
    6.6126    2.8162   -3.4837 N   0  0  0  0  0  0  0  0  0  0  0  0
    8.0753    4.4675   -3.1771 N   0  0  0  0  0  0  0  0  0  0  0  0
    3.9022   -1.8995   -0.1330 O   0  0  0  0  0  0  0  0  0  0  0  0
    4.4660   -1.9087   -1.4479 C   0  0  3  0  0  0  0  0  0  0  0  0
    3.4614   -2.2436   -2.5967 C   0  0  3  0  0  0  0  0  0  0  0  0
    2.9231   -3.6808   -2.3824 C   0  0  3  0  0  0  0  0  0  0  0  0
    4.0738   -4.6860   -2.2491 C   0  0  3  0  0  0  0  0  0  0  0  0
    5.0884   -4.2099   -1.2016 C   0  0  3  0  0  0  0  0  0  0  0  0
    5.5338   -2.8736   -1.4710 O   0  0  0  0  0  0  0  0  0  0  0  0
    6.3221   -5.1102   -1.1544 C   0  0  0  0  0  0  0  0  0  0  0  0
    5.9724   -6.4773   -0.9760 O   0  0  0  0  0  0  0  0  0  0  0  0
    4.6998   -4.8556   -3.5338 O   0  0  0  0  0  0  0  0  0  0  0  0
    2.0768   -4.0529   -3.4906 O   0  0  0  0  0  0  0  0  0  0  0  0
    4.0270   -2.1881   -3.9863 N   0  0  0  0  0  0  0  0  0  0  0  0
    4.5873   -0.8897   -4.3265 C   0  0  0  0  0  0  0  0  0  0  0  0
    0.8917   -0.3227    1.1407 C   0  0  0  0  0  0  0  0  0  0  0  0
    1.2134   -0.4116    2.3935 N   0  0  0  0  0  0  0  0  0  0  0  0
    0.1308   -0.4235    3.2437 N   0  0  0  0  0  0  0  0  0  0  0  0
    0.2884   -0.6054    4.5914 C   0  0  0  0  0  0  0  0  0  0  0  0
   -0.9842   -0.9808    5.5844 S   0  0  0  0  0  0  0  0  0  0  0  0
    1.5451   -0.4637    5.0694 N   0  0  0  0  0  0  0  0  0  0  0  0
    1.3393   -1.7478   -0.5169 O   0  0  0  0  0  0  0  0  0  0  0  0
    0.1485    1.7353   -0.5286 H   0  0  0  0  0  0  0  0  0  0  0  0
    1.3681    2.6042   -1.4836 H   0  0  0  0  0  0  0  0  0  0  0  0
    1.6535    2.3194    0.2153 H   0  0  0  0  0  0  0  0  0  0  0  0
    1.4874    0.2153   -1.9996 H   0  0  0  0  0  0  0  0  0  0  0  0
    3.5189   -0.7662    1.5012 H   0  0  0  0  0  0  0  0  0  0  0  0
    3.6331    1.4494    0.6507 H   0  0  0  0  0  0  0  0  0  0  0  0
    5.3900    2.4543   -1.1264 H   0  0  0  0  0  0  0  0  0  0  0  0
    7.3757    0.8906   -1.7400 H   0  0  0  0  0  0  0  0  0  0  0  0
    8.0985    0.1217    0.3715 H   0  0  0  0  0  0  0  0  0  0  0  0
    8.9802    1.3692    2.2049 H   0  0  0  0  0  0  0  0  0  0  0  0
    6.5767    1.2805    2.2930 H   0  0  0  0  0  0  0  0  0  0  0  0
    6.5880    3.8082    0.5469 H   0  0  0  0  0  0  0  0  0  0  0  0
    5.1120    3.6035    2.2892 H   0  0  0  0  0  0  0  0  0  0  0  0
    7.8208    3.6849    2.8829 H   0  0  0  0  0  0  0  0  0  0  0  0
   10.9229    1.4198    1.0036 H   0  0  0  0  0  0  0  0  0  0  0  0
   12.2386    2.4304    1.2755 H   0  0  0  0  0  0  0  0  0  0  0  0
   10.4472    5.2609    1.1806 H   0  0  0  0  0  0  0  0  0  0  0  0
   11.9089    4.5223    0.8259 H   0  0  0  0  0  0  0  0  0  0  0  0
    9.8283    1.8977   -0.9118 H   0  0  0  0  0  0  0  0  0  0  0  0
    6.2066    1.9052   -3.3089 H   0  0  0  0  0  0  0  0  0  0  0  0
    6.4455    3.2274   -4.3941 H   0  0  0  0  0  0  0  0  0  0  0  0
    8.6909    4.8902   -2.4870 H   0  0  0  0  0  0  0  0  0  0  0  0
    7.3551    5.1308   -3.4323 H   0  0  0  0  0  0  0  0  0  0  0  0
    4.9569   -0.9625   -1.6557 H   0  0  0  0  0  0  0  0  0  0  0  0
    2.6142   -1.5589   -2.5864 H   0  0  0  0  0  0  0  0  0  0  0  0
    2.3040   -3.7372   -1.4826 H   0  0  0  0  0  0  0  0  0  0  0  0
    3.6683   -5.6665   -1.9867 H   0  0  0  0  0  0  0  0  0  0  0  0
    4.6164   -4.2323   -0.2132 H   0  0  0  0  0  0  0  0  0  0  0  0
    6.9641   -4.8058   -0.3225 H   0  0  0  0  0  0  0  0  0  0  0  0
    6.9279   -5.0082   -2.0606 H   0  0  0  0  0  0  0  0  0  0  0  0
    5.7356   -6.8073   -1.8625 H   0  0  0  0  0  0  0  0  0  0  0  0
    4.9243   -3.9420   -3.8299 H   0  0  0  0  0  0  0  0  0  0  0  0
    2.6439   -4.5742   -4.0943 H   0  0  0  0  0  0  0  0  0  0  0  0
    3.2339   -2.3753   -4.6114 H   0  0  0  0  0  0  0  0  0  0  0  0
    5.4673   -0.6567   -3.7220 H   0  0  0  0  0  0  0  0  0  0  0  0
    3.8531   -0.0851   -4.2257 H   0  0  0  0  0  0  0  0  0  0  0  0
    4.9249   -0.9140   -5.3673 H   0  0  0  0  0  0  0  0  0  0  0  0
   -0.1633   -0.1971    0.8350 H   0  0  0  0  0  0  0  0  0  0  0  0
   -0.8066   -0.5816    2.8845 H   0  0  0  0  0  0  0  0  0  0  0  0
    2.2749   -0.2368    4.4139 H   0  0  0  0  0  0  0  0  0  0  0  0
    1.7739   -0.5898    6.0449 H   0  0  0  0  0  0  0  0  0  0  0  0
    1.6465   -2.4640    0.0810 H   0  0  0  0  0  0  0  0  0  0  0  0
  1  2  1  0  0  0  0
  1 45  1  0  0  0  0
  1 46  1  0  0  0  0
  1 47  1  0  0  0  0
  2  3  1  0  0  0  0
  2  6  1  0  0  0  0
  2 48  1  0  0  0  0
  3  4  1  0  0  0  0
  3 38  1  0  0  0  0
  3 44  1  0  0  0  0
  4  5  1  0  0  0  0
  4 25  1  0  0  0  0
  4 49  1  0  0  0  0
  5  6  1  0  0  0  0
  5  7  1  0  0  0  0
  5 50  1  0  0  0  0
  7  8  1  0  0  0  0
  8  9  1  0  0  0  0
  8 13  1  0  0  0  0
  8 51  1  0  0  0  0
  9 10  1  0  0  0  0
  9 21  1  0  0  0  0
  9 52  1  0  0  0  0
 10 11  1  0  0  0  0
 10 20  1  0  0  0  0
 10 53  1  0  0  0  0
 11 12  1  0  0  0  0
 11 16  1  0  0  0  0
 11 54  1  0  0  0  0
 12 13  1  0  0  0  0
 12 15  1  0  0  0  0
 12 55  1  0  0  0  0
 13 14  1  0  0  0  0
 13 56  1  0  0  0  0
 14 57  1  0  0  0  0
 15 58  1  0  0  0  0
 16 17  2  0  0  0  0
 17 18  1  0  0  0  0
 17 19  1  0  0  0  0
 18 59  1  0  0  0  0
 18 60  1  0  0  0  0
 19 61  1  0  0  0  0
 19 62  1  0  0  0  0
 20 63  1  0  0  0  0
 21 22  2  0  0  0  0
 22 23  1  0  0  0  0
 22 24  1  0  0  0  0
 23 64  1  0  0  0  0
 23 65  1  0  0  0  0
 24 66  1  0  0  0  0
 24 67  1  0  0  0  0
 25 26  1  0  0  0  0
 26 27  1  0  0  0  0
 26 31  1  0  0  0  0
 26 68  1  0  0  0  0
 27 28  1  0  0  0  0
 27 36  1  0  0  0  0
 27 69  1  0  0  0  0
 28 29  1  0  0  0  0
 28 35  1  0  0  0  0
 28 70  1  0  0  0  0
 29 30  1  0  0  0  0
 29 34  1  0  0  0  0
 29 71  1  0  0  0  0
 30 31  1  0  0  0  0
 30 32  1  0  0  0  0
 30 72  1  0  0  0  0
 32 33  1  0  0  0  0
 32 73  1  0  0  0  0
 32 74  1  0  0  0  0
 33 75  1  0  0  0  0
 34 76  1  0  0  0  0
 35 77  1  0  0  0  0
 36 37  1  0  0  0  0
 36 78  1  0  0  0  0
 37 79  1  0  0  0  0
 37 80  1  0  0  0  0
 37 81  1  0  0  0  0
 38 39  2  0  0  0  0
 38 82  1  0  0  0  0
 39 40  1  0  0  0  0
 40 41  1  0  0  0  0
 40 83  1  0  0  0  0
 41 42  2  0  0  0  0
 41 43  1  0  0  0  0
 43 84  1  0  0  0  0
 43 85  1  0  0  0  0
 44 86  1  0  0  0  0
M  END
