
 OpenBabel10072620203D

 58 60  0  0  1  0  0  0  0  0999 V2000
    0.4432   -4.1827    1.6644 C   0  0  0  0  0  0  0  0  0  0  0  0
    1.9340   -4.4247    1.4862 C   0  0  0  0  0  0  0  0  0  0  0  0
    2.7213   -3.1142    1.4847 C   0  0  0  0  0  0  0  0  0  0  0  0
    4.2259   -3.3674    1.3548 C   0  0  0  0  0  0  0  0  0  0  0  0
    5.0129   -2.0533    1.3743 C   0  0  0  0  0  0  0  0  0  0  0  0
    6.5406   -2.2500    1.4252 C   0  0  3  0  0  0  0  0  0  0  0  0
    7.2306   -0.8873    1.6080 C   0  0  0  0  0  0  0  0  0  0  0  0
    8.7519   -1.0202    1.6540 C   0  0  0  0  0  0  0  0  0  0  0  0
    9.2926   -1.7338    0.4037 C   0  0  3  0  0  0  0  0  0  0  0  0
    8.6046   -3.0943    0.2073 C   0  0  0  0  0  0  0  0  0  0  0  0
    7.0822   -2.9585    0.1739 C   0  0  0  0  0  0  0  0  0  0  0  0
   10.8055   -1.8753    0.4394 C   0  0  0  0  0  0  0  0  0  0  0  0
   11.4514   -2.5907    1.4596 C   0  0  0  0  0  0  0  0  0  0  0  0
   12.8421   -2.7155    1.4744 C   0  0  0  0  0  0  0  0  0  0  0  0
   13.6052   -2.1221    0.4710 C   0  0  0  0  0  0  0  0  0  0  0  0
   12.9812   -1.4241   -0.5601 C   0  0  0  0  0  0  0  0  0  0  0  0
   11.5889   -1.2971   -0.5725 C   0  0  0  0  0  0  0  0  0  0  0  0
   15.0155   -2.2951    0.4757 N   0  0  0  0  0  0  0  0  0  0  0  0
   15.6766   -3.5049   -0.5006 S   0  0  0  0  0  0  0  0  0  0  0  0
   16.9794   -3.8244    0.0415 O   0  0  0  0  0  0  0  0  0  0  0  0
   14.6910   -4.5473   -0.6893 O   0  0  0  0  0  0  0  0  0  0  0  0
   15.9326   -2.6912   -2.0523 C   0  0  0  0  0  0  0  0  0  0  0  0
   16.8021   -1.6035   -2.1765 C   0  0  0  0  0  0  0  0  0  0  0  0
   16.9896   -1.0193   -3.4357 C   0  0  0  0  0  0  0  0  0  0  0  0
   16.3245   -1.5185   -4.5581 C   0  0  0  0  0  0  0  0  0  0  0  0
   15.4617   -2.6030   -4.4236 C   0  0  0  0  0  0  0  0  0  0  0  0
   15.2595   -3.1921   -3.1788 C   0  0  0  0  0  0  0  0  0  0  0  0
   14.6442   -3.2172   -5.8051 Cl  0  0  0  0  0  0  0  0  0  0  0  0
   17.6645   -0.8928   -0.8614 Cl  0  0  0  0  0  0  0  0  0  0  0  0
   -0.0982   -5.1343    1.6549 H   0  0  0  0  0  0  0  0  0  0  0  0
    0.0478   -3.5574    0.8574 H   0  0  0  0  0  0  0  0  0  0  0  0
    0.2386   -3.6852    2.6182 H   0  0  0  0  0  0  0  0  0  0  0  0
    2.1021   -4.9603    0.5449 H   0  0  0  0  0  0  0  0  0  0  0  0
    2.2905   -5.0723    2.2954 H   0  0  0  0  0  0  0  0  0  0  0  0
    2.5197   -2.5653    2.4125 H   0  0  0  0  0  0  0  0  0  0  0  0
    2.3817   -2.4817    0.6554 H   0  0  0  0  0  0  0  0  0  0  0  0
    4.4169   -3.9061    0.4200 H   0  0  0  0  0  0  0  0  0  0  0  0
    4.5613   -4.0100    2.1778 H   0  0  0  0  0  0  0  0  0  0  0  0
    4.7050   -1.4722    2.2533 H   0  0  0  0  0  0  0  0  0  0  0  0
    4.7447   -1.4570    0.4929 H   0  0  0  0  0  0  0  0  0  0  0  0
    6.7780   -2.8688    2.3016 H   0  0  0  0  0  0  0  0  0  0  0  0
    6.8863   -0.4163    2.5366 H   0  0  0  0  0  0  0  0  0  0  0  0
    6.9497   -0.2127    0.7889 H   0  0  0  0  0  0  0  0  0  0  0  0
    9.0293   -1.5650    2.5655 H   0  0  0  0  0  0  0  0  0  0  0  0
    9.2002   -0.0222    1.7388 H   0  0  0  0  0  0  0  0  0  0  0  0
    9.0305   -1.1094   -0.4626 H   0  0  0  0  0  0  0  0  0  0  0  0
    8.8787   -3.7880    1.0128 H   0  0  0  0  0  0  0  0  0  0  0  0
    8.9451   -3.5548   -0.7290 H   0  0  0  0  0  0  0  0  0  0  0  0
    6.6496   -3.9607    0.0837 H   0  0  0  0  0  0  0  0  0  0  0  0
    6.7883   -2.4013   -0.7245 H   0  0  0  0  0  0  0  0  0  0  0  0
   10.8757   -3.0678    2.2502 H   0  0  0  0  0  0  0  0  0  0  0  0
   13.3154   -3.2902    2.2657 H   0  0  0  0  0  0  0  0  0  0  0  0
   13.5641   -0.9573   -1.3478 H   0  0  0  0  0  0  0  0  0  0  0  0
   11.1194   -0.7423   -1.3828 H   0  0  0  0  0  0  0  0  0  0  0  0
   15.4893   -2.2626    1.3788 H   0  0  0  0  0  0  0  0  0  0  0  0
   17.6599   -0.1695   -3.5527 H   0  0  0  0  0  0  0  0  0  0  0  0
   16.4880   -1.0605   -5.5307 H   0  0  0  0  0  0  0  0  0  0  0  0
   14.5848   -4.0422   -3.0896 H   0  0  0  0  0  0  0  0  0  0  0  0
  1  2  1  0  0  0  0
  1 30  1  0  0  0  0
  1 31  1  0  0  0  0
  1 32  1  0  0  0  0
  2  3  1  0  0  0  0
  2 33  1  0  0  0  0
  2 34  1  0  0  0  0
  3  4  1  0  0  0  0
  3 35  1  0  0  0  0
  3 36  1  0  0  0  0
  4  5  1  0  0  0  0
  4 37  1  0  0  0  0
  4 38  1  0  0  0  0
  5  6  1  0  0  0  0
  5 39  1  0  0  0  0
  5 40  1  0  0  0  0
  6  7  1  0  0  0  0
  6 11  1  0  0  0  0
  6 41  1  0  0  0  0
  7  8  1  0  0  0  0
  7 42  1  0  0  0  0
  7 43  1  0  0  0  0
  8  9  1  0  0  0  0
  8 44  1  0  0  0  0
  8 45  1  0  0  0  0
  9 10  1  0  0  0  0
  9 12  1  0  0  0  0
  9 46  1  0  0  0  0
 10 11  1  0  0  0  0
 10 47  1  0  0  0  0
 10 48  1  0  0  0  0
 11 49  1  0  0  0  0
 11 50  1  0  0  0  0
 12 13  2  0  0  0  0
 12 17  1  0  0  0  0
 13 14  1  0  0  0  0
 13 51  1  0  0  0  0
 14 15  2  0  0  0  0
 14 52  1  0  0  0  0
 15 16  1  0  0  0  0
 15 18  1  0  0  0  0
 16 17  2  0  0  0  0
 16 53  1  0  0  0  0
 17 54  1  0  0  0  0
 18 19  1  0  0  0  0
 18 55  1  0  0  0  0
 19 20  2  0  0  0  0
 19 21  2  0  0  0  0
 19 22  1  0  0  0  0
 22 23  2  0  0  0  0
 22 27  1  0  0  0  0
 23 24  1  0  0  0  0
 23 29  1  0  0  0  0
 24 25  2  0  0  0  0
 24 56  1  0  0  0  0
 25 26  1  0  0  0  0
 25 57  1  0  0  0  0
 26 27  2  0  0  0  0
 26 28  1  0  0  0  0
 27 58  1  0  0  0  0
M  END
