
 OpenBabel10072616333D

 56 58  0  0  0  0  0  0  0  0999 V2000
    4.0252   -4.5443   -1.5966 C   0  0  0  0  0  0  0  0  0  0  0  0
    3.6290   -3.5979   -0.4641 C   0  0  0  0  0  0  0  0  0  0  0  0
    4.5274   -2.4380   -0.3291 N   0  0  0  0  0  0  0  0  0  0  0  0
    4.6234   -1.6059   -1.5417 C   0  0  0  0  0  0  0  0  0  0  0  0
    3.3197   -0.9942   -2.0459 C   0  0  0  0  0  0  0  0  0  0  0  0
    4.1924   -1.6270    0.8671 C   0  0  0  0  0  0  0  0  0  0  0  0
    4.5979   -2.3156    2.1870 C   0  0  0  0  0  0  0  0  0  0  0  0
    5.9819   -2.7811    2.1433 N   0  0  0  0  0  0  0  0  0  0  0  0
    6.6220   -3.4876    3.1488 C   0  0  0  0  0  0  0  0  0  0  0  0
    5.9499   -3.8086    4.6514 S   0  0  0  0  0  0  0  0  0  0  0  0
    7.9195   -3.7814    2.7383 N   0  0  0  0  0  0  0  0  0  0  0  0
    8.8220   -4.6448    3.3818 C   0  0  0  0  0  0  0  0  0  0  0  0
   10.1220   -4.2017    3.6099 C   0  0  0  0  0  0  0  0  0  0  0  0
   11.0134   -5.0243    4.3089 C   0  0  0  0  0  0  0  0  0  0  0  0
   10.6598   -6.3076    4.7127 C   0  0  0  0  0  0  0  0  0  0  0  0
    9.3688   -6.7566    4.4411 C   0  0  0  0  0  0  0  0  0  0  0  0
    8.4523   -5.9311    3.7841 C   0  0  0  0  0  0  0  0  0  0  0  0
   11.5538   -7.1554    5.3735 N   0  0  0  0  0  0  0  0  0  0  0  0
   12.7103   -6.6883    5.7194 C   0  0  0  0  0  0  0  0  0  0  0  0
   13.6675   -7.6382    6.4132 C   0  0  0  0  0  0  0  0  0  0  0  0
   14.9368   -7.8698    5.5997 C   0  0  0  0  0  0  0  0  0  0  0  0
   16.0035   -6.8000    5.8230 C   0  0  0  0  0  0  0  0  0  0  0  0
   15.6090   -5.4131    5.3211 C   0  0  0  0  0  0  0  0  0  0  0  0
   14.3690   -4.8593    6.0180 C   0  0  0  0  0  0  0  0  0  0  0  0
   13.1213   -5.3921    5.4740 N   0  0  0  0  0  0  0  0  0  0  0  0
   12.3384   -4.5284    4.7103 C   0  0  0  0  0  0  0  0  0  0  0  0
   12.6803   -3.3946    4.3750 O   0  0  0  0  0  0  0  0  0  0  0  0
    3.3882   -5.4356   -1.5736 H   0  0  0  0  0  0  0  0  0  0  0  0
    5.0679   -4.8673   -1.4902 H   0  0  0  0  0  0  0  0  0  0  0  0
    3.9014   -4.0842   -2.5828 H   0  0  0  0  0  0  0  0  0  0  0  0
    3.6569   -4.1898    0.4590 H   0  0  0  0  0  0  0  0  0  0  0  0
    2.5879   -3.2785   -0.5953 H   0  0  0  0  0  0  0  0  0  0  0  0
    5.0809   -2.1931   -2.3474 H   0  0  0  0  0  0  0  0  0  0  0  0
    5.3471   -0.8003   -1.3587 H   0  0  0  0  0  0  0  0  0  0  0  0
    2.6270   -1.7565   -2.4143 H   0  0  0  0  0  0  0  0  0  0  0  0
    3.5180   -0.3150   -2.8805 H   0  0  0  0  0  0  0  0  0  0  0  0
    2.8163   -0.4148   -1.2673 H   0  0  0  0  0  0  0  0  0  0  0  0
    3.1266   -1.3683    0.9001 H   0  0  0  0  0  0  0  0  0  0  0  0
    4.7467   -0.6806    0.8155 H   0  0  0  0  0  0  0  0  0  0  0  0
    3.9528   -3.1750    2.3955 H   0  0  0  0  0  0  0  0  0  0  0  0
    4.4949   -1.6145    3.0224 H   0  0  0  0  0  0  0  0  0  0  0  0
    6.2732   -3.0332    1.2018 H   0  0  0  0  0  0  0  0  0  0  0  0
    8.3288   -3.0039    2.2271 H   0  0  0  0  0  0  0  0  0  0  0  0
   10.4284   -3.2004    3.3189 H   0  0  0  0  0  0  0  0  0  0  0  0
    9.0673   -7.7546    4.7475 H   0  0  0  0  0  0  0  0  0  0  0  0
    7.4556   -6.3144    3.5806 H   0  0  0  0  0  0  0  0  0  0  0  0
   13.1517   -8.6003    6.5341 H   0  0  0  0  0  0  0  0  0  0  0  0
   13.8872   -7.2752    7.4210 H   0  0  0  0  0  0  0  0  0  0  0  0
   14.7018   -7.9400    4.5305 H   0  0  0  0  0  0  0  0  0  0  0  0
   15.3627   -8.8347    5.9006 H   0  0  0  0  0  0  0  0  0  0  0  0
   16.9222   -7.1083    5.3093 H   0  0  0  0  0  0  0  0  0  0  0  0
   16.2482   -6.7429    6.8914 H   0  0  0  0  0  0  0  0  0  0  0  0
   15.4654   -5.4338    4.2336 H   0  0  0  0  0  0  0  0  0  0  0  0
   16.4478   -4.7330    5.5208 H   0  0  0  0  0  0  0  0  0  0  0  0
   14.3794   -3.7664    5.9274 H   0  0  0  0  0  0  0  0  0  0  0  0
   14.3953   -5.0754    7.0929 H   0  0  0  0  0  0  0  0  0  0  0  0
  1  2  1  0  0  0  0
  1 28  1  0  0  0  0
  1 29  1  0  0  0  0
  1 30  1  0  0  0  0
  2  3  1  0  0  0  0
  2 31  1  0  0  0  0
  2 32  1  0  0  0  0
  3  4  1  0  0  0  0
  3  6  1  0  0  0  0
  4  5  1  0  0  0  0
  4 33  1  0  0  0  0
  4 34  1  0  0  0  0
  5 35  1  0  0  0  0
  5 36  1  0  0  0  0
  5 37  1  0  0  0  0
  6  7  1  0  0  0  0
  6 38  1  0  0  0  0
  6 39  1  0  0  0  0
  7  8  1  0  0  0  0
  7 40  1  0  0  0  0
  7 41  1  0  0  0  0
  8  9  1  0  0  0  0
  8 42  1  0  0  0  0
  9 10  2  0  0  0  0
  9 11  1  0  0  0  0
 11 12  1  0  0  0  0
 11 43  1  0  0  0  0
 12 13  2  0  0  0  0
 12 17  1  0  0  0  0
 13 14  1  0  0  0  0
 13 44  1  0  0  0  0
 14 15  2  0  0  0  0
 14 26  1  0  0  0  0
 15 16  1  0  0  0  0
 15 18  1  0  0  0  0
 16 17  2  0  0  0  0
 16 45  1  0  0  0  0
 17 46  1  0  0  0  0
 18 19  2  0  0  0  0
 19 20  1  0  0  0  0
 19 25  1  0  0  0  0
 20 21  1  0  0  0  0
 20 47  1  0  0  0  0
 20 48  1  0  0  0  0
 21 22  1  0  0  0  0
 21 49  1  0  0  0  0
 21 50  1  0  0  0  0
 22 23  1  0  0  0  0
 22 51  1  0  0  0  0
 22 52  1  0  0  0  0
 23 24  1  0  0  0  0
 23 53  1  0  0  0  0
 23 54  1  0  0  0  0
 24 25  1  0  0  0  0
 24 55  1  0  0  0  0
 24 56  1  0  0  0  0
 25 26  1  0  0  0  0
 26 27  2  0  0  0  0
M  END
