
 OpenBabel10072619573D

 86 87  0  0  0  0  0  0  0  0999 V2000
   -6.7868    6.5392    7.1860 C   0  0  0  0  0  0  0  0  0  0  0  0
   -6.0292    7.4337    6.2215 C   0  0  0  0  0  0  0  0  0  0  0  0
   -6.7311    7.4411    4.9711 O   0  0  0  0  0  0  0  0  0  0  0  0
   -6.1799    8.2510    4.0301 C   0  0  0  0  0  0  0  0  0  0  0  0
   -5.2094    8.9796    4.1713 O   0  0  0  0  0  0  0  0  0  0  0  0
   -6.8759    8.0804    2.7440 C   0  0  0  0  0  0  0  0  0  0  0  0
   -6.7179    6.9615    2.0084 C   0  0  0  0  0  0  0  0  0  0  0  0
   -5.8757    5.8216    2.3785 C   0  0  0  0  0  0  0  0  0  0  0  0
   -6.4579    4.5566    2.4992 C   0  0  0  0  0  0  0  0  0  0  0  0
   -5.6837    3.4466    2.8551 C   0  0  0  0  0  0  0  0  0  0  0  0
   -4.3179    3.5939    3.0949 C   0  0  0  0  0  0  0  0  0  0  0  0
   -3.7392    4.8611    2.9817 C   0  0  0  0  0  0  0  0  0  0  0  0
   -4.5062    5.9669    2.6100 C   0  0  0  0  0  0  0  0  0  0  0  0
   -3.4441    2.6018    3.4419 O   0  0  0  0  0  0  0  0  0  0  0  0
   -3.8887    1.2467    3.3756 C   0  0  0  0  0  0  0  0  0  0  0  0
   -3.7319    0.6946    1.9572 C   0  0  0  0  0  0  0  0  0  0  0  0
   -4.3531   -0.6951    1.8009 C   0  0  0  0  0  0  0  0  0  0  0  0
   -5.8776   -0.7001    1.6147 C   0  0  0  0  0  0  0  0  0  0  0  0
   -6.4067    0.0320    0.3774 C   0  0  0  0  0  0  0  0  0  0  0  0
   -5.7890   -0.4574   -0.9279 C   0  0  0  0  0  0  0  0  0  0  0  0
   -6.3907    0.2546   -2.0130 O   0  0  0  0  0  0  0  0  0  0  0  0
   -5.6781    0.2138   -3.1825 C   0  0  0  0  0  0  0  0  0  0  0  0
   -4.7822   -0.7955   -3.5386 C   0  0  0  0  0  0  0  0  0  0  0  0
   -4.0420   -0.6878   -4.7175 C   0  0  0  0  0  0  0  0  0  0  0  0
   -4.1972    0.4264   -5.5492 C   0  0  0  0  0  0  0  0  0  0  0  0
   -5.1395    1.4030   -5.2251 C   0  0  0  0  0  0  0  0  0  0  0  0
   -5.8805    1.2919   -4.0460 C   0  0  0  0  0  0  0  0  0  0  0  0
   -3.3349    0.5770   -6.7202 C   0  0  0  0  0  0  0  0  0  0  0  0
   -3.5139   -0.0483   -7.8990 C   0  0  0  0  0  0  0  0  0  0  0  0
   -4.7061   -0.8835   -8.1245 C   0  0  0  0  0  0  0  0  0  0  0  0
   -4.7248   -2.0934   -7.9684 O   0  0  0  0  0  0  0  0  0  0  0  0
   -5.7447   -0.0879   -8.4868 O   0  0  0  0  0  0  0  0  0  0  0  0
   -7.0018   -0.7554   -8.6675 C   0  0  0  0  0  0  0  0  0  0  0  0
   -7.7817   -0.0039   -9.7272 C   0  0  0  0  0  0  0  0  0  0  0  0
   -2.5209    0.0394   -8.9884 C   0  0  0  0  0  0  0  0  0  0  0  0
   -2.7532   -0.2921  -10.1425 O   0  0  0  0  0  0  0  0  0  0  0  0
   -1.3146    0.4633   -8.5211 O   0  0  0  0  0  0  0  0  0  0  0  0
   -0.2270    0.4095   -9.4583 C   0  0  0  0  0  0  0  0  0  0  0  0
    0.3952   -0.9764   -9.4320 C   0  0  0  0  0  0  0  0  0  0  0  0
   -7.7603    9.1693    2.2920 C   0  0  0  0  0  0  0  0  0  0  0  0
   -8.3410    9.9254    3.0557 O   0  0  0  0  0  0  0  0  0  0  0  0
   -7.8311    9.1998    0.9354 O   0  0  0  0  0  0  0  0  0  0  0  0
   -8.6953   10.1925    0.3660 C   0  0  0  0  0  0  0  0  0  0  0  0
   -9.9851    9.5199   -0.0579 C   0  0  0  0  0  0  0  0  0  0  0  0
   -6.2787    6.4904    8.1533 H   0  0  0  0  0  0  0  0  0  0  0  0
   -6.8822    5.5241    6.7852 H   0  0  0  0  0  0  0  0  0  0  0  0
   -7.8029    6.9172    7.3425 H   0  0  0  0  0  0  0  0  0  0  0  0
   -5.0162    7.0414    6.0685 H   0  0  0  0  0  0  0  0  0  0  0  0
   -5.9733    8.4500    6.6301 H   0  0  0  0  0  0  0  0  0  0  0  0
   -7.2497    6.8354    1.0676 H   0  0  0  0  0  0  0  0  0  0  0  0
   -7.5245    4.4228    2.3322 H   0  0  0  0  0  0  0  0  0  0  0  0
   -6.1859    2.4892    2.9381 H   0  0  0  0  0  0  0  0  0  0  0  0
   -2.6771    4.9907    3.1781 H   0  0  0  0  0  0  0  0  0  0  0  0
   -4.0202    6.9359    2.5131 H   0  0  0  0  0  0  0  0  0  0  0  0
   -4.8968    1.1183    3.7807 H   0  0  0  0  0  0  0  0  0  0  0  0
   -3.2313    0.6772    4.0446 H   0  0  0  0  0  0  0  0  0  0  0  0
   -2.6579    0.6330    1.7331 H   0  0  0  0  0  0  0  0  0  0  0  0
   -4.1322    1.3937    1.2159 H   0  0  0  0  0  0  0  0  0  0  0  0
   -4.1068   -1.3029    2.6809 H   0  0  0  0  0  0  0  0  0  0  0  0
   -3.8807   -1.2036    0.9522 H   0  0  0  0  0  0  0  0  0  0  0  0
   -6.3599   -0.2787    2.5042 H   0  0  0  0  0  0  0  0  0  0  0  0
   -6.2032   -1.7463    1.5598 H   0  0  0  0  0  0  0  0  0  0  0  0
   -6.2581    1.1136    0.4706 H   0  0  0  0  0  0  0  0  0  0  0  0
   -7.4944   -0.1001    0.3267 H   0  0  0  0  0  0  0  0  0  0  0  0
   -5.9827   -1.5291   -1.0486 H   0  0  0  0  0  0  0  0  0  0  0  0
   -4.7090   -0.2699   -0.9086 H   0  0  0  0  0  0  0  0  0  0  0  0
   -4.6271   -1.6674   -2.9098 H   0  0  0  0  0  0  0  0  0  0  0  0
   -3.3281   -1.4724   -4.9607 H   0  0  0  0  0  0  0  0  0  0  0  0
   -5.2912    2.2648   -5.8696 H   0  0  0  0  0  0  0  0  0  0  0  0
   -6.5931    2.0687   -3.7807 H   0  0  0  0  0  0  0  0  0  0  0  0
   -2.4703    1.2149   -6.5522 H   0  0  0  0  0  0  0  0  0  0  0  0
   -7.5407   -0.7233   -7.7151 H   0  0  0  0  0  0  0  0  0  0  0  0
   -6.8781   -1.7982   -8.9787 H   0  0  0  0  0  0  0  0  0  0  0  0
   -7.8914    1.0496   -9.4527 H   0  0  0  0  0  0  0  0  0  0  0  0
   -8.7738   -0.4396   -9.8697 H   0  0  0  0  0  0  0  0  0  0  0  0
   -7.2464   -0.0316  -10.6813 H   0  0  0  0  0  0  0  0  0  0  0  0
    0.5150    1.1514   -9.1423 H   0  0  0  0  0  0  0  0  0  0  0  0
   -0.5542    0.6852  -10.4678 H   0  0  0  0  0  0  0  0  0  0  0  0
    0.6848   -1.2469   -8.4102 H   0  0  0  0  0  0  0  0  0  0  0  0
    1.2792   -1.0241  -10.0752 H   0  0  0  0  0  0  0  0  0  0  0  0
   -0.3231   -1.7315   -9.7693 H   0  0  0  0  0  0  0  0  0  0  0  0
   -8.1812   10.6109   -0.5050 H   0  0  0  0  0  0  0  0  0  0  0  0
   -8.8958   11.0197    1.0554 H   0  0  0  0  0  0  0  0  0  0  0  0
   -9.7856    8.7298   -0.7892 H   0  0  0  0  0  0  0  0  0  0  0  0
  -10.6780   10.2399   -0.5002 H   0  0  0  0  0  0  0  0  0  0  0  0
  -10.4695    9.0421    0.7994 H   0  0  0  0  0  0  0  0  0  0  0  0
  1  2  1  0  0  0  0
  1 45  1  0  0  0  0
  1 46  1  0  0  0  0
  1 47  1  0  0  0  0
  2  3  1  0  0  0  0
  2 48  1  0  0  0  0
  2 49  1  0  0  0  0
  3  4  1  0  0  0  0
  4  5  2  0  0  0  0
  4  6  1  0  0  0  0
  6  7  2  0  0  0  0
  6 40  1  0  0  0  0
  7  8  1  0  0  0  0
  7 50  1  0  0  0  0
  8  9  2  0  0  0  0
  8 13  1  0  0  0  0
  9 10  1  0  0  0  0
  9 51  1  0  0  0  0
 10 11  2  0  0  0  0
 10 52  1  0  0  0  0
 11 12  1  0  0  0  0
 11 14  1  0  0  0  0
 12 13  2  0  0  0  0
 12 53  1  0  0  0  0
 13 54  1  0  0  0  0
 14 15  1  0  0  0  0
 15 16  1  0  0  0  0
 15 55  1  0  0  0  0
 15 56  1  0  0  0  0
 16 17  1  0  0  0  0
 16 57  1  0  0  0  0
 16 58  1  0  0  0  0
 17 18  1  0  0  0  0
 17 59  1  0  0  0  0
 17 60  1  0  0  0  0
 18 19  1  0  0  0  0
 18 61  1  0  0  0  0
 18 62  1  0  0  0  0
 19 20  1  0  0  0  0
 19 63  1  0  0  0  0
 19 64  1  0  0  0  0
 20 21  1  0  0  0  0
 20 65  1  0  0  0  0
 20 66  1  0  0  0  0
 21 22  1  0  0  0  0
 22 23  2  0  0  0  0
 22 27  1  0  0  0  0
 23 24  1  0  0  0  0
 23 67  1  0  0  0  0
 24 25  2  0  0  0  0
 24 68  1  0  0  0  0
 25 26  1  0  0  0  0
 25 28  1  0  0  0  0
 26 27  2  0  0  0  0
 26 69  1  0  0  0  0
 27 70  1  0  0  0  0
 28 29  2  0  0  0  0
 28 71  1  0  0  0  0
 29 30  1  0  0  0  0
 29 35  1  0  0  0  0
 30 31  2  0  0  0  0
 30 32  1  0  0  0  0
 32 33  1  0  0  0  0
 33 34  1  0  0  0  0
 33 72  1  0  0  0  0
 33 73  1  0  0  0  0
 34 74  1  0  0  0  0
 34 75  1  0  0  0  0
 34 76  1  0  0  0  0
 35 36  2  0  0  0  0
 35 37  1  0  0  0  0
 37 38  1  0  0  0  0
 38 39  1  0  0  0  0
 38 77  1  0  0  0  0
 38 78  1  0  0  0  0
 39 79  1  0  0  0  0
 39 80  1  0  0  0  0
 39 81  1  0  0  0  0
 40 41  2  0  0  0  0
 40 42  1  0  0  0  0
 42 43  1  0  0  0  0
 43 44  1  0  0  0  0
 43 82  1  0  0  0  0
 43 83  1  0  0  0  0
 44 84  1  0  0  0  0
 44 85  1  0  0  0  0
 44 86  1  0  0  0  0
M  END
