
 OpenBabel10072616333D

 57 59  0  0  0  0  0  0  0  0999 V2000
    2.0491   -1.2056    0.7023 C   0  0  0  0  0  0  0  0  0  0  0  0
    3.0719    0.1016   -0.0253 S   0  0  0  0  0  0  0  0  0  0  0  0
    3.1132    1.2369    1.3484 C   0  0  0  0  0  0  0  0  0  0  0  0
    4.3513    1.6022    1.8821 C   0  0  0  0  0  0  0  0  0  0  0  0
    4.4214    2.5024    2.9479 C   0  0  0  0  0  0  0  0  0  0  0  0
    3.2531    3.0520    3.4872 C   0  0  0  0  0  0  0  0  0  0  0  0
    2.0158    2.6889    2.9525 C   0  0  0  0  0  0  0  0  0  0  0  0
    1.9462    1.7931    1.8808 C   0  0  0  0  0  0  0  0  0  0  0  0
    3.3521    3.9947    4.6042 C   0  0  0  0  0  0  0  0  0  0  0  0
    3.5834    5.3159    4.4927 C   0  0  0  0  0  0  0  0  0  0  0  0
    3.9162    6.0527    5.7647 C   0  0  0  0  0  0  0  0  0  0  0  0
    4.2928    5.4863    6.7843 O   0  0  0  0  0  0  0  0  0  0  0  0
    3.7274    7.4153    5.6619 N   0  0  0  0  0  0  0  0  0  0  0  0
    3.7495    8.2727    6.8348 C   0  0  0  0  0  0  0  0  0  0  0  0
    5.1239    8.3437    7.5287 C   0  0  0  0  0  0  0  0  0  0  0  0
    5.2412    9.4511    8.4994 N   0  0  0  0  0  0  0  0  0  0  0  0
    6.6171    9.5261    9.0514 C   0  0  0  0  0  0  0  0  0  0  0  0
    6.9496    8.4257   10.0757 C   0  0  0  0  0  0  0  0  0  0  0  0
    6.0013    8.4125   11.1493 O   0  0  0  0  0  0  0  0  0  0  0  0
    4.6755    8.2166   10.6407 C   0  0  0  0  0  0  0  0  0  0  0  0
    4.3048    9.3264    9.6408 C   0  0  0  0  0  0  0  0  0  0  0  0
    3.6251    6.0206    3.3018 N   0  0  0  0  0  0  0  0  0  0  0  0
    2.5345    6.1283    2.4517 C   0  0  0  0  0  0  0  0  0  0  0  0
    1.4071    5.7088    2.6830 O   0  0  0  0  0  0  0  0  0  0  0  0
    2.7750    6.9637    1.2493 C   0  0  0  0  0  0  0  0  0  0  0  0
    3.9356    6.7924    0.4851 C   0  0  0  0  0  0  0  0  0  0  0  0
    4.1530    7.5989   -0.6333 C   0  0  0  0  0  0  0  0  0  0  0  0
    3.2208    8.5775   -0.9816 C   0  0  0  0  0  0  0  0  0  0  0  0
    2.0599    8.7419   -0.2232 C   0  0  0  0  0  0  0  0  0  0  0  0
    1.8286    7.9288    0.8879 C   0  0  0  0  0  0  0  0  0  0  0  0
    2.0093   -2.0527    0.0118 H   0  0  0  0  0  0  0  0  0  0  0  0
    1.0287   -0.8528    0.8770 H   0  0  0  0  0  0  0  0  0  0  0  0
    2.4836   -1.5448    1.6474 H   0  0  0  0  0  0  0  0  0  0  0  0
    5.2698    1.1875    1.4741 H   0  0  0  0  0  0  0  0  0  0  0  0
    5.3926    2.7727    3.3554 H   0  0  0  0  0  0  0  0  0  0  0  0
    1.0996    3.1280    3.3422 H   0  0  0  0  0  0  0  0  0  0  0  0
    0.9733    1.5563    1.4575 H   0  0  0  0  0  0  0  0  0  0  0  0
    3.3444    3.5227    5.5854 H   0  0  0  0  0  0  0  0  0  0  0  0
    3.1632    7.7256    4.8818 H   0  0  0  0  0  0  0  0  0  0  0  0
    2.9821    7.8991    7.5207 H   0  0  0  0  0  0  0  0  0  0  0  0
    3.4488    9.2711    6.4995 H   0  0  0  0  0  0  0  0  0  0  0  0
    5.8772    8.4985    6.7452 H   0  0  0  0  0  0  0  0  0  0  0  0
    5.3481    7.3784    7.9932 H   0  0  0  0  0  0  0  0  0  0  0  0
    6.7161   10.5009    9.5467 H   0  0  0  0  0  0  0  0  0  0  0  0
    7.3577    9.5209    8.2443 H   0  0  0  0  0  0  0  0  0  0  0  0
    7.9363    8.6091   10.5131 H   0  0  0  0  0  0  0  0  0  0  0  0
    6.9773    7.4342    9.6106 H   0  0  0  0  0  0  0  0  0  0  0  0
    3.9886    8.2410   11.4938 H   0  0  0  0  0  0  0  0  0  0  0  0
    4.6040    7.2197   10.1900 H   0  0  0  0  0  0  0  0  0  0  0  0
    4.3172   10.2854   10.1757 H   0  0  0  0  0  0  0  0  0  0  0  0
    3.2732    9.2012    9.2975 H   0  0  0  0  0  0  0  0  0  0  0  0
    4.2580    6.8139    3.2814 H   0  0  0  0  0  0  0  0  0  0  0  0
    4.6567    6.0163    0.7305 H   0  0  0  0  0  0  0  0  0  0  0  0
    5.0416    7.4546   -1.2437 H   0  0  0  0  0  0  0  0  0  0  0  0
    3.3930    9.2076   -1.8519 H   0  0  0  0  0  0  0  0  0  0  0  0
    1.3288    9.4961   -0.5045 H   0  0  0  0  0  0  0  0  0  0  0  0
    0.9166    8.0493    1.4698 H   0  0  0  0  0  0  0  0  0  0  0  0
  1  2  1  0  0  0  0
  1 31  1  0  0  0  0
  1 32  1  0  0  0  0
  1 33  1  0  0  0  0
  2  3  1  0  0  0  0
  3  4  2  0  0  0  0
  3  8  1  0  0  0  0
  4  5  1  0  0  0  0
  4 34  1  0  0  0  0
  5  6  2  0  0  0  0
  5 35  1  0  0  0  0
  6  7  1  0  0  0  0
  6  9  1  0  0  0  0
  7  8  2  0  0  0  0
  7 36  1  0  0  0  0
  8 37  1  0  0  0  0
  9 10  2  0  0  0  0
  9 38  1  0  0  0  0
 10 11  1  0  0  0  0
 10 22  1  0  0  0  0
 11 12  2  0  0  0  0
 11 13  1  0  0  0  0
 13 14  1  0  0  0  0
 13 39  1  0  0  0  0
 14 15  1  0  0  0  0
 14 40  1  0  0  0  0
 14 41  1  0  0  0  0
 15 16  1  0  0  0  0
 15 42  1  0  0  0  0
 15 43  1  0  0  0  0
 16 17  1  0  0  0  0
 16 21  1  0  0  0  0
 17 18  1  0  0  0  0
 17 44  1  0  0  0  0
 17 45  1  0  0  0  0
 18 19  1  0  0  0  0
 18 46  1  0  0  0  0
 18 47  1  0  0  0  0
 19 20  1  0  0  0  0
 20 21  1  0  0  0  0
 20 48  1  0  0  0  0
 20 49  1  0  0  0  0
 21 50  1  0  0  0  0
 21 51  1  0  0  0  0
 22 23  1  0  0  0  0
 22 52  1  0  0  0  0
 23 24  2  0  0  0  0
 23 25  1  0  0  0  0
 25 26  2  0  0  0  0
 25 30  1  0  0  0  0
 26 27  1  0  0  0  0
 26 53  1  0  0  0  0
 27 28  2  0  0  0  0
 27 54  1  0  0  0  0
 28 29  1  0  0  0  0
 28 55  1  0  0  0  0
 29 30  2  0  0  0  0
 29 56  1  0  0  0  0
 30 57  1  0  0  0  0
M  END
