
 OpenBabel10072616403D

203210  0  0  1  0  0  0  0  0999 V2000
    0.6719   -0.3843    0.1294 C   0  0  0  0  0  0  0  0  0  0  0  0
   -0.2631    0.8225    0.9502 C   0  0  2  0  0  0  0  0  0  0  0  0
   -1.8479    1.9418    0.2093 C   0  0  2  0  0  0  0  0  0  0  0  0
   -0.9395    1.7404   -0.8333 C   0  0  1  0  0  0  0  0  0  0  0  0
    0.1429    2.6549   -0.1339 C   0  0  2  0  0  0  0  0  0  0  0  0
    1.5700    2.2694    0.1321 C   0  0  2  0  0  0  0  0  0  0  0  0
    1.2195    1.5602    1.3449 O   0  0  0  0  0  0  0  0  0  0  0  0
    2.4482    3.3924    0.0387 O   0  0  0  0  0  0  0  0  0  0  0  0
    2.6527    4.0674   -1.2548 C   0  0  3  0  0  0  0  0  0  0  0  0
    1.4839    4.7539   -1.7855 C   0  0  2  0  0  0  0  0  0  0  0  0
    0.5225    3.8244   -2.3845 O   0  0  0  0  0  0  0  0  0  0  0  0
    0.6105    3.0533   -3.6452 C   0  0  3  0  0  0  0  0  0  0  0  0
    1.9549    2.3967   -3.1934 C   0  0  1  0  0  0  0  0  0  0  0  0
    3.0343    3.3467   -2.6111 C   0  0  1  0  0  0  0  0  0  0  0  0
    3.2549    4.2242   -3.7274 O   0  0  0  0  0  0  0  0  0  0  0  0
    3.5160    3.5942   -5.2058 S   0  0  0  0  0  0  0  0  0  0  0  0
    4.8361    3.0626   -5.1075 O   0  0  0  0  0  0  0  0  0  0  0  0
    2.3766    2.7952   -5.6111 O   0  0  0  0  0  0  0  0  0  0  0  0
    3.4993    4.8891   -6.1568 O   0  0  0  0  0  0  0  0  0  0  0  0
    1.4749    1.6664   -2.1060 O   0  0  0  0  0  0  0  0  0  0  0  0
   -0.2731    3.4156   -4.8255 O   0  0  0  0  0  0  0  0  0  0  0  0
   -1.9127    3.1377   -5.1863 C   0  0  3  0  0  0  0  0  0  0  0  0
   -3.2039    3.9636   -4.5883 C   0  0  2  0  0  0  0  0  0  0  0  0
   -3.3723    3.6251   -3.1504 O   0  0  0  0  0  0  0  0  0  0  0  0
   -3.7842    2.3250   -2.7553 C   0  0  3  0  0  0  0  0  0  0  0  0
   -2.8371    1.4110   -3.6776 C   0  0  1  0  0  0  0  0  0  0  0  0
   -2.5827    1.7932   -5.0856 C   0  0  1  0  0  0  0  0  0  0  0  0
   -3.8878    1.9453   -5.5934 O   0  0  0  0  0  0  0  0  0  0  0  0
   -4.9863    0.7694   -5.4528 S   0  0  0  0  0  0  0  0  0  0  0  0
   -6.2565    1.4152   -5.6700 O   0  0  0  0  0  0  0  0  0  0  0  0
   -4.4421   -0.2908   -6.2505 O   0  0  0  0  0  0  0  0  0  0  0  0
   -5.0183    0.2802   -3.9144 O   0  0  0  0  0  0  0  0  0  0  0  0
   -1.5411    1.5093   -3.2039 O   0  0  0  0  0  0  0  0  0  0  0  0
   -5.1666    2.3230   -2.1730 O   0  0  0  0  0  0  0  0  0  0  0  0
   -5.8538    2.8326   -0.6851 C   0  0  3  0  0  0  0  0  0  0  0  0
   -5.6029    4.1769    0.1013 C   0  0  2  0  0  0  0  0  0  0  0  0
   -4.4195    4.0919    0.8601 O   0  0  0  0  0  0  0  0  0  0  0  0
   -4.2990    3.3904    2.1991 C   0  0  3  0  0  0  0  0  0  0  0  0
   -4.5734    1.9163    1.2235 C   0  0  1  0  0  0  0  0  0  0  0  0
   -5.9202    1.9485    0.6396 C   0  0  1  0  0  0  0  0  0  0  0  0
   -6.5952    2.5327    1.7471 O   0  0  0  0  0  0  0  0  0  0  0  0
   -6.6193    1.7077    3.1687 S   0  0  0  0  0  0  0  0  0  0  0  0
   -7.0883    2.6001    4.1916 O   0  0  0  0  0  0  0  0  0  0  0  0
   -7.2155    0.4330    2.8320 O   0  0  0  0  0  0  0  0  0  0  0  0
   -5.0823    1.4038    3.6322 O   0  0  0  0  0  0  0  0  0  0  0  0
   -4.0618    1.4927    0.0006 O   0  0  0  0  0  0  0  0  0  0  0  0
   -4.1247    4.7394    2.7928 O   0  0  0  0  0  0  0  0  0  0  0  0
   -2.8159    5.6134    2.8051 C   0  0  3  0  0  0  0  0  0  0  0  0
   -2.6511    6.8715    1.8231 C   0  0  2  0  0  0  0  0  0  0  0  0
   -2.7332    6.4412    0.5200 O   0  0  0  0  0  0  0  0  0  0  0  0
   -1.8193    5.5238    0.1133 C   0  0  3  0  0  0  0  0  0  0  0  0
   -1.6948    4.5732    1.1879 C   0  0  1  0  0  0  0  0  0  0  0  0
   -1.5626    4.7995    2.6194 C   0  0  1  0  0  0  0  0  0  0  0  0
   -0.3552    5.4388    2.9569 O   0  0  0  0  0  0  0  0  0  0  0  0
    0.9973    4.6061    2.6518 S   0  0  0  0  0  0  0  0  0  0  0  0
    2.1799    5.3537    2.9182 O   0  0  0  0  0  0  0  0  0  0  0  0
    0.8324    3.2792    3.2054 O   0  0  0  0  0  0  0  0  0  0  0  0
    0.9364    4.6129    1.0773 O   0  0  0  0  0  0  0  0  0  0  0  0
   -2.5213    3.5038    1.2015 O   0  0  0  0  0  0  0  0  0  0  0  0
   -0.6091    5.8225   -0.4805 O   0  0  0  0  0  0  0  0  0  0  0  0
   -0.5581    6.4271   -1.7605 C   0  0  3  0  0  0  0  0  0  0  0  0
   -1.3000    7.6267   -1.7383 C   0  0  2  0  0  0  0  0  0  0  0  0
   -2.3369    6.8399   -2.1424 O   0  0  0  0  0  0  0  0  0  0  0  0
   -2.6933    6.2130   -3.2658 C   0  0  3  0  0  0  0  0  0  0  0  0
   -1.6996    5.1373   -3.2236 C   0  0  1  0  0  0  0  0  0  0  0  0
   -0.5509    5.8961   -3.2549 C   0  0  1  0  0  0  0  0  0  0  0  0
   -0.5866    6.8360   -4.3329 O   0  0  0  0  0  0  0  0  0  0  0  0
    0.5515    6.8494   -5.4932 S   0  0  0  0  0  0  0  0  0  0  0  0
    1.1379    5.5447   -5.6226 O   0  0  0  0  0  0  0  0  0  0  0  0
    0.0228    7.5703   -6.6108 O   0  0  0  0  0  0  0  0  0  0  0  0
    1.6773    7.7321   -4.7914 O   0  0  0  0  0  0  0  0  0  0  0  0
   -1.5538    4.1401   -2.2749 O   0  0  0  0  0  0  0  0  0  0  0  0
   -3.0598    7.1361   -4.2199 O   0  0  0  0  0  0  0  0  0  0  0  0
   -4.1169    7.9903   -3.6268 C   0  0  3  0  0  0  0  0  0  0  0  0
   -3.8456    8.2166   -2.1764 C   0  0  2  0  0  0  0  0  0  0  0  0
   -3.9148    6.9520   -1.0746 O   0  0  0  0  0  0  0  0  0  0  0  0
   -3.8215    5.1302   -1.3469 C   0  0  2  0  0  0  0  0  0  0  0  0
   -2.9395    3.3577   -0.7617 O   0  0  0  0  0  0  0  0  0  0  0  0
   -5.3939    5.9115   -2.2349 C   0  0  1  0  0  0  0  0  0  0  0  0
   -5.4886    7.4991   -3.1206 C   0  0  1  0  0  0  0  0  0  0  0  0
   -6.0355    8.6862   -2.4724 O   0  0  0  0  0  0  0  0  0  0  0  0
   -7.5554    8.8918   -2.0106 S   0  0  0  0  0  0  0  0  0  0  0  0
   -8.4014    8.7596   -3.1691 O   0  0  0  0  0  0  0  0  0  0  0  0
   -7.7465    8.1349   -0.8138 O   0  0  0  0  0  0  0  0  0  0  0  0
   -7.5849   10.4367   -1.5438 O   0  0  0  0  0  0  0  0  0  0  0  0
   -6.3915    5.0964   -2.8228 O   0  0  0  0  0  0  0  0  0  0  0  0
   -3.6904    9.4899   -1.4640 C   0  0  0  0  0  0  0  0  0  0  0  0
   -4.7073   10.3662   -1.1823 O   0  0  0  0  0  0  0  0  0  0  0  0
   -4.0613   11.6737   -0.4728 S   0  0  0  0  0  0  0  0  0  0  0  0
   -3.4086   11.1939    0.7241 O   0  0  0  0  0  0  0  0  0  0  0  0
   -3.3371   12.4112   -1.4841 O   0  0  0  0  0  0  0  0  0  0  0  0
   -5.3898   12.4527   -0.0589 O   0  0  0  0  0  0  0  0  0  0  0  0
   -0.8917    9.1354   -1.6525 C   0  0  0  0  0  0  0  0  0  0  0  0
   -0.9011   10.0202   -2.7846 O   0  0  0  0  0  0  0  0  0  0  0  0
    0.4202   10.7512   -3.5861 S   0  0  0  0  0  0  0  0  0  0  0  0
    1.6961   10.7197   -2.9081 O   0  0  0  0  0  0  0  0  0  0  0  0
    0.3541   10.2786   -4.9465 O   0  0  0  0  0  0  0  0  0  0  0  0
    0.1110   12.3212   -3.5092 O   0  0  0  0  0  0  0  0  0  0  0  0
   -1.2927    7.5760    1.6510 C   0  0  0  0  0  0  0  0  0  0  0  0
   -0.6305    8.1715    2.6930 O   0  0  0  0  0  0  0  0  0  0  0  0
    0.8187    8.7701    2.2332 S   0  0  0  0  0  0  0  0  0  0  0  0
    1.7104    7.6676    1.9735 O   0  0  0  0  0  0  0  0  0  0  0  0
    0.5929    9.8151    1.2604 O   0  0  0  0  0  0  0  0  0  0  0  0
    1.2860    9.3761    3.6248 O   0  0  0  0  0  0  0  0  0  0  0  0
   -6.1086    5.5353    0.6911 C   0  0  0  0  0  0  0  0  0  0  0  0
   -7.1749    6.0375    0.0014 O   0  0  0  0  0  0  0  0  0  0  0  0
   -8.5314    5.2336    0.0327 S   0  0  0  0  0  0  0  0  0  0  0  0
   -8.2352    3.8429   -0.1945 O   0  0  0  0  0  0  0  0  0  0  0  0
   -9.2247    5.6766    1.2024 O   0  0  0  0  0  0  0  0  0  0  0  0
   -9.1696    5.7372   -1.3457 O   0  0  0  0  0  0  0  0  0  0  0  0
   -4.6472    4.3047   -4.7729 C   0  0  0  0  0  0  0  0  0  0  0  0
   -4.8475    5.7179   -4.6498 O   0  0  0  0  0  0  0  0  0  0  0  0
   -4.9341    6.6676   -5.9627 S   0  0  0  0  0  0  0  0  0  0  0  0
   -5.2666    5.7675   -7.0081 O   0  0  0  0  0  0  0  0  0  0  0  0
   -5.7693    7.8169   -5.6297 O   0  0  0  0  0  0  0  0  0  0  0  0
   -3.4199    7.1537   -6.3175 O   0  0  0  0  0  0  0  0  0  0  0  0
    1.9505    5.9133   -2.6640 C   0  0  0  0  0  0  0  0  0  0  0  0
    2.6919    6.9817   -2.1338 O   0  0  0  0  0  0  0  0  0  0  0  0
    1.8305    8.1241   -1.3792 S   0  0  0  0  0  0  0  0  0  0  0  0
    1.0632    7.5752   -0.3134 O   0  0  0  0  0  0  0  0  0  0  0  0
    2.4414    9.4058   -1.1258 O   0  0  0  0  0  0  0  0  0  0  0  0
    0.8843    8.4477   -2.6420 O   0  0  0  0  0  0  0  0  0  0  0  0
   -0.2936    2.8734    1.3044 O   0  0  0  0  0  0  0  0  0  0  0  0
   -0.9114    0.4083   -1.3419 O   0  0  0  0  0  0  0  0  0  0  0  0
   -2.1588   -0.6637   -1.4734 S   0  0  0  0  0  0  0  0  0  0  0  0
   -2.1783   -1.4923   -0.3013 O   0  0  0  0  0  0  0  0  0  0  0  0
   -3.3974   -0.0452   -1.8701 O   0  0  0  0  0  0  0  0  0  0  0  0
   -1.7421   -1.5711   -2.7301 O   0  0  0  0  0  0  0  0  0  0  0  0
    2.0109   -0.7999    0.5258 O   0  0  0  0  0  0  0  0  0  0  0  0
    2.7789   -1.6905   -0.6552 S   0  0  0  0  0  0  0  0  0  0  0  0
    2.0705   -2.9481   -0.7538 O   0  0  0  0  0  0  0  0  0  0  0  0
    2.9958   -0.8827   -1.8364 O   0  0  0  0  0  0  0  0  0  0  0  0
    4.2362   -2.0315   -0.0557 O   0  0  0  0  0  0  0  0  0  0  0  0
    0.9478    0.0401   -0.8214 H   0  0  0  0  0  0  0  0  0  0  0  0
    0.1031   -1.2826   -0.0301 H   0  0  0  0  0  0  0  0  0  0  0  0
   -0.4907    0.4161    1.9468 H   0  0  0  0  0  0  0  0  0  0  0  0
   -2.4193    1.0285    0.4076 H   0  0  0  0  0  0  0  0  0  0  0  0
   -1.5422    2.2595   -1.4467 H   0  0  0  0  0  0  0  0  0  0  0  0
   -0.0525    3.5853   -0.6008 H   0  0  0  0  0  0  0  0  0  0  0  0
    2.1746    1.5626   -0.3888 H   0  0  0  0  0  0  0  0  0  0  0  0
    3.2678    4.9315   -0.9671 H   0  0  0  0  0  0  0  0  0  0  0  0
    1.1060    5.1769   -0.8884 H   0  0  0  0  0  0  0  0  0  0  0  0
    0.1267    2.1015   -3.5936 H   0  0  0  0  0  0  0  0  0  0  0  0
    2.3458    1.6583   -3.8465 H   0  0  0  0  0  0  0  0  0  0  0  0
    3.9710    2.8937   -2.3594 H   0  0  0  0  0  0  0  0  0  0  0  0
    2.6287    5.3248   -6.1095 H   0  0  0  0  0  0  0  0  0  0  0  0
    0.9445    2.4043   -1.7664 H   0  0  0  0  0  0  0  0  0  0  0  0
   -1.8759    3.5927   -6.1754 H   0  0  0  0  0  0  0  0  0  0  0  0
   -2.8566    4.9583   -4.8623 H   0  0  0  0  0  0  0  0  0  0  0  0
   -3.2814    1.9219   -1.9195 H   0  0  0  0  0  0  0  0  0  0  0  0
   -3.0103    0.3607   -3.6171 H   0  0  0  0  0  0  0  0  0  0  0  0
   -1.9489    1.0985   -5.6181 H   0  0  0  0  0  0  0  0  0  0  0  0
   -5.4084    0.9000   -3.2474 H   0  0  0  0  0  0  0  0  0  0  0  0
   -1.3952    2.4516   -2.9502 H   0  0  0  0  0  0  0  0  0  0  0  0
   -6.8154    2.8743   -1.1414 H   0  0  0  0  0  0  0  0  0  0  0  0
   -5.5336    4.5299   -0.8818 H   0  0  0  0  0  0  0  0  0  0  0  0
   -3.3751    2.9463    2.6166 H   0  0  0  0  0  0  0  0  0  0  0  0
   -4.2559    1.0825    1.8346 H   0  0  0  0  0  0  0  0  0  0  0  0
   -6.2617    0.9647    0.3478 H   0  0  0  0  0  0  0  0  0  0  0  0
   -4.7466    2.0451    4.2983 H   0  0  0  0  0  0  0  0  0  0  0  0
   -3.7525    2.3011   -0.4354 H   0  0  0  0  0  0  0  0  0  0  0  0
   -2.7887    6.0840    3.7782 H   0  0  0  0  0  0  0  0  0  0  0  0
   -3.4760    7.5732    1.9038 H   0  0  0  0  0  0  0  0  0  0  0  0
   -2.1059    5.0245   -0.7238 H   0  0  0  0  0  0  0  0  0  0  0  0
   -1.0123    4.1586    0.5871 H   0  0  0  0  0  0  0  0  0  0  0  0
   -1.6507    3.8551    3.1779 H   0  0  0  0  0  0  0  0  0  0  0  0
    0.3914    5.2928    0.6614 H   0  0  0  0  0  0  0  0  0  0  0  0
   -3.2027    3.6961    0.5360 H   0  0  0  0  0  0  0  0  0  0  0  0
    0.3909    6.6732   -1.6691 H   0  0  0  0  0  0  0  0  0  0  0  0
   -1.5981    7.6918   -0.7366 H   0  0  0  0  0  0  0  0  0  0  0  0
   -3.6068    5.7113   -3.2358 H   0  0  0  0  0  0  0  0  0  0  0  0
   -1.5257    4.6690   -4.1018 H   0  0  0  0  0  0  0  0  0  0  0  0
    0.1391    5.1774   -3.5950 H   0  0  0  0  0  0  0  0  0  0  0  0
    2.3925    7.2091   -4.3887 H   0  0  0  0  0  0  0  0  0  0  0  0
   -2.4138    3.7720   -1.9902 H   0  0  0  0  0  0  0  0  0  0  0  0
   -3.9022    8.8706   -4.2501 H   0  0  0  0  0  0  0  0  0  0  0  0
   -2.8761    8.4399   -2.5689 H   0  0  0  0  0  0  0  0  0  0  0  0
   -4.0018    5.3074   -0.3429 H   0  0  0  0  0  0  0  0  0  0  0  0
   -5.9404    6.3930   -1.4533 H   0  0  0  0  0  0  0  0  0  0  0  0
   -6.2715    7.3641   -3.8423 H   0  0  0  0  0  0  0  0  0  0  0  0
   -7.7179   11.0153   -2.3179 H   0  0  0  0  0  0  0  0  0  0  0  0
   -6.3060    5.3432   -3.7658 H   0  0  0  0  0  0  0  0  0  0  0  0
   -3.0090   10.0830   -2.0853 H   0  0  0  0  0  0  0  0  0  0  0  0
   -3.2215    9.1599   -0.5413 H   0  0  0  0  0  0  0  0  0  0  0  0
   -6.0191   11.7749    0.2653 H   0  0  0  0  0  0  0  0  0  0  0  0
    0.0378    9.2676   -1.1774 H   0  0  0  0  0  0  0  0  0  0  0  0
   -1.2875    9.5480   -0.7233 H   0  0  0  0  0  0  0  0  0  0  0  0
    0.5475   12.6241   -2.6744 H   0  0  0  0  0  0  0  0  0  0  0  0
   -1.3611    8.3030    0.8501 H   0  0  0  0  0  0  0  0  0  0  0  0
   -0.5615    6.8788    1.2562 H   0  0  0  0  0  0  0  0  0  0  0  0
    1.2431    8.6183    4.2449 H   0  0  0  0  0  0  0  0  0  0  0  0
   -5.3281    6.3291    0.6220 H   0  0  0  0  0  0  0  0  0  0  0  0
   -6.2604    5.5365    1.7738 H   0  0  0  0  0  0  0  0  0  0  0  0
   -8.4922    5.5557   -2.0374 H   0  0  0  0  0  0  0  0  0  0  0  0
   -5.0580    3.9560   -3.8266 H   0  0  0  0  0  0  0  0  0  0  0  0
   -5.3004    3.8695   -5.4828 H   0  0  0  0  0  0  0  0  0  0  0  0
   -2.7528    6.7809   -5.7054 H   0  0  0  0  0  0  0  0  0  0  0  0
    1.1535    6.4576   -3.0428 H   0  0  0  0  0  0  0  0  0  0  0  0
    2.0737    5.6232   -3.6825 H   0  0  0  0  0  0  0  0  0  0  0  0
    0.1810    7.9622   -3.1247 H   0  0  0  0  0  0  0  0  0  0  0  0
    0.3892    2.5531    1.9281 H   0  0  0  0  0  0  0  0  0  0  0  0
   -1.8787   -2.5086   -2.5063 H   0  0  0  0  0  0  0  0  0  0  0  0
    4.1542   -2.7119    0.6374 H   0  0  0  0  0  0  0  0  0  0  0  0
  1  2  1  0  0  0  0
  1129  1  0  0  0  0
  1134  1  0  0  0  0
  1135  1  0  0  0  0
  2  3  1  0  0  0  0
  2  7  1  0  0  0  0
  2136  1  1  0  0  0
  3  4  1  0  0  0  0
  3 78  1  0  0  0  0
  3137  1  6  0  0  0
  4  5  1  0  0  0  0
  4124  1  0  0  0  0
  4138  1  6  0  0  0
  5  6  1  0  0  0  0
  5123  1  0  0  0  0
  5139  1  6  0  0  0
  6  7  1  0  0  0  0
  6  8  1  0  0  0  0
  6140  1  6  0  0  0
  8  9  1  0  0  0  0
  9 10  1  0  0  0  0
  9 14  1  0  0  0  0
  9141  1  0  0  0  0
 10 11  1  0  0  0  0
 10117  1  0  0  0  0
 10142  1  1  0  0  0
 11 12  1  0  0  0  0
 12 13  1  0  0  0  0
 12 21  1  0  0  0  0
 12143  1  0  0  0  0
 13 14  1  0  0  0  0
 13 20  1  0  0  0  0
 13144  1  6  0  0  0
 14 15  1  0  0  0  0
 14145  1  1  0  0  0
 15 16  1  0  0  0  0
 16 17  2  0  0  0  0
 16 18  2  0  0  0  0
 16 19  1  0  0  0  0
 19146  1  0  0  0  0
 20147  1  0  0  0  0
 21 22  1  0  0  0  0
 22 23  1  0  0  0  0
 22 27  1  0  0  0  0
 22148  1  0  0  0  0
 23 24  1  0  0  0  0
 23111  1  0  0  0  0
 23149  1  1  0  0  0
 24 25  1  0  0  0  0
 25 26  1  0  0  0  0
 25 34  1  0  0  0  0
 25150  1  0  0  0  0
 26 27  1  0  0  0  0
 26 33  1  0  0  0  0
 26151  1  1  0  0  0
 27 28  1  0  0  0  0
 27152  1  6  0  0  0
 28 29  1  0  0  0  0
 29 30  2  0  0  0  0
 29 31  2  0  0  0  0
 29 32  1  0  0  0  0
 32153  1  0  0  0  0
 33154  1  0  0  0  0
 34 35  1  0  0  0  0
 35 36  1  0  0  0  0
 35 40  1  0  0  0  0
 35155  1  0  0  0  0
 36 37  1  0  0  0  0
 36105  1  0  0  0  0
 36156  1  6  0  0  0
 37 38  1  0  0  0  0
 38 39  1  0  0  0  0
 38 47  1  0  0  0  0
 38157  1  0  0  0  0
 39 40  1  0  0  0  0
 39 46  1  0  0  0  0
 39158  1  1  0  0  0
 40 41  1  0  0  0  0
 40159  1  6  0  0  0
 41 42  1  0  0  0  0
 42 43  2  0  0  0  0
 42 44  2  0  0  0  0
 42 45  1  0  0  0  0
 45160  1  0  0  0  0
 46161  1  0  0  0  0
 47 48  1  0  0  0  0
 48 49  1  0  0  0  0
 48 53  1  0  0  0  0
 48162  1  0  0  0  0
 49 50  1  0  0  0  0
 49 99  1  0  0  0  0
 49163  1  1  0  0  0
 50 51  1  0  0  0  0
 51 52  1  0  0  0  0
 51 60  1  0  0  0  0
 51164  1  0  0  0  0
 52 53  1  0  0  0  0
 52 59  1  0  0  0  0
 52165  1  6  0  0  0
 53 54  1  0  0  0  0
 53166  1  1  0  0  0
 54 55  1  0  0  0  0
 55 56  2  0  0  0  0
 55 57  2  0  0  0  0
 55 58  1  0  0  0  0
 58167  1  0  0  0  0
 59168  1  0  0  0  0
 60 61  1  0  0  0  0
 61 62  1  0  0  0  0
 61 66  1  0  0  0  0
 61169  1  0  0  0  0
 62 63  1  0  0  0  0
 62 93  1  0  0  0  0
 62170  1  1  0  0  0
 63 64  1  0  0  0  0
 64 65  1  0  0  0  0
 64 73  1  0  0  0  0
 64171  1  0  0  0  0
 65 66  1  0  0  0  0
 65 72  1  0  0  0  0
 65172  1  6  0  0  0
 66 67  1  0  0  0  0
 66173  1  6  0  0  0
 67 68  1  0  0  0  0
 68 69  2  0  0  0  0
 68 70  2  0  0  0  0
 68 71  1  0  0  0  0
 71174  1  0  0  0  0
 72175  1  0  0  0  0
 73 74  1  0  0  0  0
 74 75  1  0  0  0  0
 74 80  1  0  0  0  0
 74176  1  0  0  0  0
 75 76  1  0  0  0  0
 75 87  1  0  0  0  0
 75177  1  6  0  0  0
 76 77  1  0  0  0  0
 77 78  1  0  0  0  0
 77 79  1  0  0  0  0
 77178  1  1  0  0  0
 79 80  1  0  0  0  0
 79 86  1  0  0  0  0
 79179  1  1  0  0  0
 80 81  1  0  0  0  0
 80180  1  6  0  0  0
 81 82  1  0  0  0  0
 82 83  2  0  0  0  0
 82 84  2  0  0  0  0
 82 85  1  0  0  0  0
 85181  1  0  0  0  0
 86182  1  0  0  0  0
 87 88  1  0  0  0  0
 87183  1  0  0  0  0
 87184  1  0  0  0  0
 88 89  1  0  0  0  0
 89 90  2  0  0  0  0
 89 91  2  0  0  0  0
 89 92  1  0  0  0  0
 92185  1  0  0  0  0
 93 94  1  0  0  0  0
 93186  1  0  0  0  0
 93187  1  0  0  0  0
 94 95  1  0  0  0  0
 95 96  2  0  0  0  0
 95 97  2  0  0  0  0
 95 98  1  0  0  0  0
 98188  1  0  0  0  0
 99100  1  0  0  0  0
 99189  1  0  0  0  0
 99190  1  0  0  0  0
100101  1  0  0  0  0
101102  2  0  0  0  0
101103  2  0  0  0  0
101104  1  0  0  0  0
104191  1  0  0  0  0
105106  1  0  0  0  0
105192  1  0  0  0  0
105193  1  0  0  0  0
106107  1  0  0  0  0
107108  2  0  0  0  0
107109  2  0  0  0  0
107110  1  0  0  0  0
110194  1  0  0  0  0
111112  1  0  0  0  0
111195  1  0  0  0  0
111196  1  0  0  0  0
112113  1  0  0  0  0
113114  2  0  0  0  0
113115  2  0  0  0  0
113116  1  0  0  0  0
116197  1  0  0  0  0
117118  1  0  0  0  0
117198  1  0  0  0  0
117199  1  0  0  0  0
118119  1  0  0  0  0
119120  2  0  0  0  0
119121  2  0  0  0  0
119122  1  0  0  0  0
122200  1  0  0  0  0
123201  1  0  0  0  0
124125  1  0  0  0  0
125126  2  0  0  0  0
125127  2  0  0  0  0
125128  1  0  0  0  0
128202  1  0  0  0  0
129130  1  0  0  0  0
130131  2  0  0  0  0
130132  2  0  0  0  0
130133  1  0  0  0  0
133203  1  0  0  0  0
M  END
