
 OpenBabel10072619443D

 41 42  0  0  0  0  0  0  0  0999 V2000
    0.9241    0.0324   -0.6414 C   0  0  0  0  0  0  0  0  0  0  0  0
    2.2019   -0.3750    0.0516 C   0  0  0  0  0  0  0  0  0  0  0  0
    2.1700   -0.7393    1.2204 O   0  0  0  0  0  0  0  0  0  0  0  0
    3.2942   -0.3111   -0.7911 N   0  0  0  0  0  0  0  0  0  0  0  0
    4.6383   -0.6348   -0.5026 C   0  0  0  0  0  0  0  0  0  0  0  0
    5.1082   -1.0477    0.7438 C   0  0  0  0  0  0  0  0  0  0  0  0
    6.4763   -1.3555    0.9243 C   0  0  0  0  0  0  0  0  0  0  0  0
    7.3870   -1.2760   -0.1480 C   0  0  0  0  0  0  0  0  0  0  0  0
    6.8972   -0.8290   -1.3860 C   0  0  0  0  0  0  0  0  0  0  0  0
    5.5463   -0.5170   -1.5611 C   0  0  0  0  0  0  0  0  0  0  0  0
    8.8256   -1.5686   -0.0386 C   0  0  0  0  0  0  0  0  0  0  0  0
    9.5193   -2.2499   -0.9688 C   0  0  0  0  0  0  0  0  0  0  0  0
   10.9594   -2.5345   -0.8630 C   0  0  0  0  0  0  0  0  0  0  0  0
   11.8595   -2.4606   -1.9469 C   0  0  0  0  0  0  0  0  0  0  0  0
   13.2227   -2.7706   -1.7788 C   0  0  0  0  0  0  0  0  0  0  0  0
   13.6855   -3.1777   -0.5252 C   0  0  0  0  0  0  0  0  0  0  0  0
   12.8081   -3.2851    0.5580 C   0  0  0  0  0  0  0  0  0  0  0  0
   11.4582   -2.9694    0.3819 C   0  0  0  0  0  0  0  0  0  0  0  0
   15.1030   -3.5089   -0.3408 N   0  3  0  0  0  0  0  0  0  0  0  0
   15.8836   -3.3024   -1.2821 O   0  0  0  0  0  0  0  0  0  0  0  0
   15.4527   -3.9782    0.7542 O   0  5  0  0  0  0  0  0  0  0  0  0
   11.3155   -1.9518   -3.6116 S   0  0  0  0  0  0  0  0  0  0  0  0
   10.6756   -0.6610   -3.3827 O   0  0  0  0  0  0  0  0  0  0  0  0
   12.5644   -1.8743   -4.3694 O   0  0  0  0  0  0  0  0  0  0  0  0
   10.4377   -3.0494   -4.0075 O   0  5  0  0  0  0  0  0  0  0  0  0
    7.0243   -1.8734    2.5873 S   0  0  0  0  0  0  0  0  0  0  0  0
    7.6530   -3.1705    2.3522 O   0  0  0  0  0  0  0  0  0  0  0  0
    7.9265   -0.7921    2.9792 O   0  0  0  0  0  0  0  0  0  0  0  0
    5.7906   -1.9388    3.3690 O   0  5  0  0  0  0  0  0  0  0  0  0
    0.2515    0.5017    0.0827 H   0  0  0  0  0  0  0  0  0  0  0  0
    0.4438   -0.8557   -1.0601 H   0  0  0  0  0  0  0  0  0  0  0  0
    1.1138    0.7545   -1.4401 H   0  0  0  0  0  0  0  0  0  0  0  0
    3.1214   -0.0235   -1.7446 H   0  0  0  0  0  0  0  0  0  0  0  0
    4.4404   -1.1406    1.5954 H   0  0  0  0  0  0  0  0  0  0  0  0
    7.5754   -0.7143   -2.2330 H   0  0  0  0  0  0  0  0  0  0  0  0
    5.2293   -0.1836   -2.5450 H   0  0  0  0  0  0  0  0  0  0  0  0
    9.3076   -1.2014    0.8638 H   0  0  0  0  0  0  0  0  0  0  0  0
    9.0310   -2.6214   -1.8663 H   0  0  0  0  0  0  0  0  0  0  0  0
   13.8991   -2.6928   -2.6278 H   0  0  0  0  0  0  0  0  0  0  0  0
   13.1450   -3.6080    1.5401 H   0  0  0  0  0  0  0  0  0  0  0  0
   10.7823   -3.0710    1.2336 H   0  0  0  0  0  0  0  0  0  0  0  0
  1  2  1  0  0  0  0
  1 30  1  0  0  0  0
  1 31  1  0  0  0  0
  1 32  1  0  0  0  0
  2  3  2  0  0  0  0
  2  4  1  0  0  0  0
  4  5  1  0  0  0  0
  4 33  1  0  0  0  0
  5  6  2  0  0  0  0
  5 10  1  0  0  0  0
  6  7  1  0  0  0  0
  6 34  1  0  0  0  0
  7  8  2  0  0  0  0
  7 26  1  0  0  0  0
  8  9  1  0  0  0  0
  8 11  1  0  0  0  0
  9 10  2  0  0  0  0
  9 35  1  0  0  0  0
 10 36  1  0  0  0  0
 11 12  2  0  0  0  0
 11 37  1  0  0  0  0
 12 13  1  0  0  0  0
 12 38  1  0  0  0  0
 13 14  2  0  0  0  0
 13 18  1  0  0  0  0
 14 15  1  0  0  0  0
 14 22  1  0  0  0  0
 15 16  2  0  0  0  0
 15 39  1  0  0  0  0
 16 17  1  0  0  0  0
 16 19  1  0  0  0  0
 17 18  2  0  0  0  0
 17 40  1  0  0  0  0
 18 41  1  0  0  0  0
 19 20  2  0  0  0  0
 19 21  1  0  0  0  0
 22 23  2  0  0  0  0
 22 24  2  0  0  0  0
 22 25  1  0  0  0  0
 26 27  2  0  0  0  0
 26 28  2  0  0  0  0
 26 29  1  0  0  0  0
M  CHG  4  19   1  21  -1  25  -1  29  -1
M  END
