
 OpenBabel10072620213D

 31 32  0  0  0  0  0  0  0  0999 V2000
    1.9845    1.3998    0.4989 C   0  0  0  0  0  0  0  0  0  0  0  0
    1.8478    0.0135    0.2109 O   0  0  0  0  0  0  0  0  0  0  0  0
    2.6171   -0.8686    0.9163 C   0  0  0  0  0  0  0  0  0  0  0  0
    2.3011   -2.2333    0.8098 C   0  0  0  0  0  0  0  0  0  0  0  0
    3.0507   -3.2004    1.4936 C   0  0  0  0  0  0  0  0  0  0  0  0
    4.1253   -2.8004    2.2812 C   0  0  0  0  0  0  0  0  0  0  0  0
    4.4642   -1.4543    2.3824 C   0  0  0  0  0  0  0  0  0  0  0  0
    3.7122   -0.4915    1.7022 C   0  0  0  0  0  0  0  0  0  0  0  0
    5.0453   -3.9760    3.1349 Cl  0  0  0  0  0  0  0  0  0  0  0  0
    0.9368   -2.7226   -0.2138 S   0  0  0  0  0  0  0  0  0  0  0  0
   -0.2601   -2.0463    0.2353 O   0  0  0  0  0  0  0  0  0  0  0  0
    1.3900   -2.6788   -1.5867 O   0  0  0  0  0  0  0  0  0  0  0  0
    0.7135   -4.3569    0.1113 N   0  0  0  0  0  0  0  0  0  0  0  0
   -0.2469   -4.6896    1.1630 C   0  0  0  0  0  0  0  0  0  0  0  0
   -0.1987   -6.1572    1.3852 C   0  0  0  0  0  0  0  0  0  0  0  0
   -0.9857   -7.2054    0.9523 C   0  0  0  0  0  0  0  0  0  0  0  0
   -0.4245   -8.3809    1.5061 C   0  0  0  0  0  0  0  0  0  0  0  0
    0.6697   -7.9771    2.2343 C   0  0  0  0  0  0  0  0  0  0  0  0
    0.8158   -6.6290    2.1671 O   0  0  0  0  0  0  0  0  0  0  0  0
    2.9662    1.7707    0.1879 H   0  0  0  0  0  0  0  0  0  0  0  0
    1.8028    1.6045    1.5592 H   0  0  0  0  0  0  0  0  0  0  0  0
    1.2280    1.9396   -0.0794 H   0  0  0  0  0  0  0  0  0  0  0  0
    2.8167   -4.2580    1.4138 H   0  0  0  0  0  0  0  0  0  0  0  0
    5.3137   -1.1443    2.9862 H   0  0  0  0  0  0  0  0  0  0  0  0
    4.0156    0.5464    1.7964 H   0  0  0  0  0  0  0  0  0  0  0  0
    0.6894   -4.9162   -0.7404 H   0  0  0  0  0  0  0  0  0  0  0  0
   -1.2568   -4.4082    0.8471 H   0  0  0  0  0  0  0  0  0  0  0  0
   -0.0049   -4.1631    2.0915 H   0  0  0  0  0  0  0  0  0  0  0  0
   -1.8587   -7.1296    0.3182 H   0  0  0  0  0  0  0  0  0  0  0  0
   -0.7722   -9.3980    1.3909 H   0  0  0  0  0  0  0  0  0  0  0  0
    1.4118   -8.4980    2.8232 H   0  0  0  0  0  0  0  0  0  0  0  0
  1  2  1  0  0  0  0
  1 20  1  0  0  0  0
  1 21  1  0  0  0  0
  1 22  1  0  0  0  0
  2  3  1  0  0  0  0
  3  4  2  0  0  0  0
  3  8  1  0  0  0  0
  4  5  1  0  0  0  0
  4 10  1  0  0  0  0
  5  6  2  0  0  0  0
  5 23  1  0  0  0  0
  6  7  1  0  0  0  0
  6  9  1  0  0  0  0
  7  8  2  0  0  0  0
  7 24  1  0  0  0  0
  8 25  1  0  0  0  0
 10 11  2  0  0  0  0
 10 12  2  0  0  0  0
 10 13  1  0  0  0  0
 13 14  1  0  0  0  0
 13 26  1  0  0  0  0
 14 15  1  0  0  0  0
 14 27  1  0  0  0  0
 14 28  1  0  0  0  0
 15 16  2  0  0  0  0
 15 19  1  0  0  0  0
 16 17  1  0  0  0  0
 16 29  1  0  0  0  0
 17 18  2  0  0  0  0
 17 30  1  0  0  0  0
 18 19  1  0  0  0  0
 18 31  1  0  0  0  0
M  END
