
 OpenBabel10072616413D

117121  0  0  1  0  0  0  0  0999 V2000
    3.4428    0.3340    2.6146 C   0  0  0  0  0  0  0  0  0  0  0  0
    2.5936   -0.5328    1.6137 C   0  0  1  0  0  0  0  0  0  0  0  0
    1.8528   -1.5885    2.5236 C   0  0  0  0  0  0  0  0  0  0  0  0
    0.3260   -1.4959    2.7910 C   0  0  0  0  0  0  0  0  0  0  0  0
   -0.4635   -0.3131    2.1982 C   0  0  1  0  0  0  0  0  0  0  0  0
   -1.3785    0.4278    3.1979 C   0  0  0  0  0  0  0  0  0  0  0  0
   -1.6613    1.7747    2.5041 C   0  0  0  0  0  0  0  0  0  0  0  0
   -0.5002    2.0066    1.4952 C   0  0  2  0  0  0  0  0  0  0  0  0
    0.4770    0.8603    1.8345 C   0  0  2  0  0  0  0  0  0  0  0  0
    1.5570    0.3746    0.8534 C   0  0  1  0  0  0  0  0  0  0  0  0
    2.2325    1.4576    0.0033 C   0  0  0  0  0  0  0  0  0  0  0  0
    3.2413    0.8761   -0.9964 C   0  0  0  0  0  0  0  0  0  0  0  0
    4.2776   -0.0632   -0.3302 C   0  0  1  0  0  0  0  0  0  0  0  0
    3.5715   -1.2172    0.4991 C   0  0  1  0  0  0  0  0  0  0  0  0
    4.6662   -2.1040    1.1547 C   0  0  0  0  0  0  0  0  0  0  0  0
    5.7727   -2.5598    0.1988 C   0  0  0  0  0  0  0  0  0  0  0  0
    6.4807   -1.3561   -0.4446 C   0  0  2  0  0  0  0  0  0  0  0  0
    5.4886   -0.4737   -1.2781 C   0  0  2  0  0  0  0  0  0  0  0  0
    6.2373    0.8392   -1.7180 C   0  0  0  0  0  0  0  0  0  0  0  0
    7.7635    0.8082   -1.5843 C   0  0  0  0  0  0  0  0  0  0  0  0
    8.3689   -0.5208   -2.0196 C   0  0  1  0  0  0  0  0  0  0  0  0
    7.8562   -1.7069   -1.1410 C   0  0  0  0  0  0  0  0  0  0  0  0
    7.8232   -3.0237   -1.9440 C   0  0  0  0  0  0  0  0  0  0  0  0
    8.9102   -1.9093   -0.0125 C   0  0  0  0  0  0  0  0  0  0  0  0
    8.0969   -0.7236   -3.4041 O   0  0  0  0  0  0  0  0  0  0  0  0
    4.9931   -1.1720   -2.5635 C   0  0  0  0  0  0  0  0  0  0  0  0
    2.7182   -2.1424   -0.4194 C   0  0  0  0  0  0  0  0  0  0  0  0
   -0.0400    3.4547    1.5317 C   0  0  0  0  0  0  0  0  0  0  0  0
    1.0718    3.8859    2.1567 C   0  0  0  0  0  0  0  0  0  0  0  0
   -0.9555    4.4402    0.8404 C   0  0  0  0  0  0  0  0  0  0  0  0
   -0.8633    4.3385   -0.6073 N   0  0  0  0  0  0  0  0  0  0  0  0
   -1.3931   -0.8258    1.0471 C   0  0  0  0  0  0  0  0  0  0  0  0
   -1.3208   -0.4375   -0.1174 O   0  0  0  0  0  0  0  0  0  0  0  0
   -2.3630   -1.7240    1.4540 N   0  0  0  0  0  0  0  0  0  0  0  0
   -3.4029   -2.2231    0.5693 C   0  0  0  0  0  0  0  0  0  0  0  0
   -4.7958   -2.0033    1.1671 C   0  0  0  0  0  0  0  0  0  0  0  0
   -5.1313   -0.5165    1.3103 C   0  0  0  0  0  0  0  0  0  0  0  0
   -6.5425   -0.3002    1.8547 C   0  0  0  0  0  0  0  0  0  0  0  0
   -6.8484    1.1907    1.9930 C   0  0  0  0  0  0  0  0  0  0  0  0
   -8.2874    1.4249    2.4517 C   0  0  0  0  0  0  0  0  0  0  0  0
   -8.5653    2.9187    2.6204 C   0  0  0  0  0  0  0  0  0  0  0  0
  -10.0067    3.1765    3.0635 C   0  0  0  0  0  0  0  0  0  0  0  0
  -10.2749    4.6531    3.3656 C   0  0  0  0  0  0  0  0  0  0  0  0
  -10.2241    5.5395    2.1246 C   0  0  0  0  0  0  0  0  0  0  0  0
  -10.5800    6.9603    2.4799 C   0  0  0  0  0  0  0  0  0  0  0  0
  -11.6992    7.4353    2.3587 O   0  0  0  0  0  0  0  0  0  0  0  0
   -9.5399    7.6625    2.9825 O   0  0  0  0  0  0  0  0  0  0  0  0
    4.1812   -0.2709    3.1491 H   0  0  0  0  0  0  0  0  0  0  0  0
    2.8316    0.7844    3.4019 H   0  0  0  0  0  0  0  0  0  0  0  0
    3.9815    1.1562    2.1405 H   0  0  0  0  0  0  0  0  0  0  0  0
    2.3293   -1.5896    3.5152 H   0  0  0  0  0  0  0  0  0  0  0  0
    2.0561   -2.6050    2.1743 H   0  0  0  0  0  0  0  0  0  0  0  0
   -0.0965   -2.4479    2.4381 H   0  0  0  0  0  0  0  0  0  0  0  0
    0.1750   -1.5271    3.8788 H   0  0  0  0  0  0  0  0  0  0  0  0
   -2.3074   -0.0923    3.4543 H   0  0  0  0  0  0  0  0  0  0  0  0
   -0.8417    0.6102    4.1394 H   0  0  0  0  0  0  0  0  0  0  0  0
   -2.6125    1.7294    1.9587 H   0  0  0  0  0  0  0  0  0  0  0  0
   -1.7533    2.5663    3.2563 H   0  0  0  0  0  0  0  0  0  0  0  0
   -0.8755    1.8277    0.4841 H   0  0  0  0  0  0  0  0  0  0  0  0
    0.9734    1.1668    2.7607 H   0  0  0  0  0  0  0  0  0  0  0  0
    1.0450   -0.2615    0.1278 H   0  0  0  0  0  0  0  0  0  0  0  0
    2.7428    2.1947    0.6299 H   0  0  0  0  0  0  0  0  0  0  0  0
    1.4740    2.0052   -0.5697 H   0  0  0  0  0  0  0  0  0  0  0  0
    2.6927    0.3560   -1.7882 H   0  0  0  0  0  0  0  0  0  0  0  0
    3.7392    1.7176   -1.4928 H   0  0  0  0  0  0  0  0  0  0  0  0
    4.7832    0.5610    0.4161 H   0  0  0  0  0  0  0  0  0  0  0  0
    4.2134   -2.9874    1.6170 H   0  0  0  0  0  0  0  0  0  0  0  0
    5.1657   -1.5643    1.9628 H   0  0  0  0  0  0  0  0  0  0  0  0
    5.3815   -3.2429   -0.5581 H   0  0  0  0  0  0  0  0  0  0  0  0
    6.4830   -3.1469    0.7882 H   0  0  0  0  0  0  0  0  0  0  0  0
    6.7587   -0.7171    0.4096 H   0  0  0  0  0  0  0  0  0  0  0  0
    5.9780    1.0940   -2.7547 H   0  0  0  0  0  0  0  0  0  0  0  0
    5.9083    1.6990   -1.1216 H   0  0  0  0  0  0  0  0  0  0  0  0
    8.1785    1.6264   -2.1870 H   0  0  0  0  0  0  0  0  0  0  0  0
    8.0436    1.0187   -0.5441 H   0  0  0  0  0  0  0  0  0  0  0  0
    9.4615   -0.4490   -1.9438 H   0  0  0  0  0  0  0  0  0  0  0  0
    7.0471   -3.0279   -2.7121 H   0  0  0  0  0  0  0  0  0  0  0  0
    8.7832   -3.1963   -2.4459 H   0  0  0  0  0  0  0  0  0  0  0  0
    7.6469   -3.8890   -1.2961 H   0  0  0  0  0  0  0  0  0  0  0  0
    9.0190   -1.0067    0.5995 H   0  0  0  0  0  0  0  0  0  0  0  0
    8.6430   -2.7336    0.6555 H   0  0  0  0  0  0  0  0  0  0  0  0
    9.8967   -2.1419   -0.4307 H   0  0  0  0  0  0  0  0  0  0  0  0
    8.4973    0.0148   -3.8942 H   0  0  0  0  0  0  0  0  0  0  0  0
    4.2200   -0.5882   -3.0720 H   0  0  0  0  0  0  0  0  0  0  0  0
    5.7888   -1.2976   -3.2996 H   0  0  0  0  0  0  0  0  0  0  0  0
    4.5907   -2.1668   -2.3861 H   0  0  0  0  0  0  0  0  0  0  0  0
    3.3193   -2.8747   -0.9558 H   0  0  0  0  0  0  0  0  0  0  0  0
    2.1421   -1.5982   -1.1695 H   0  0  0  0  0  0  0  0  0  0  0  0
    1.9991   -2.7392    0.1453 H   0  0  0  0  0  0  0  0  0  0  0  0
    1.7405    3.2226    2.6902 H   0  0  0  0  0  0  0  0  0  0  0  0
    1.3544    4.9336    2.1484 H   0  0  0  0  0  0  0  0  0  0  0  0
   -1.9926    4.2660    1.1467 H   0  0  0  0  0  0  0  0  0  0  0  0
   -0.7239    5.4703    1.1332 H   0  0  0  0  0  0  0  0  0  0  0  0
   -1.1796    3.4177   -0.9077 H   0  0  0  0  0  0  0  0  0  0  0  0
    0.1157    4.3933   -0.8823 H   0  0  0  0  0  0  0  0  0  0  0  0
   -2.3479   -2.0847    2.3995 H   0  0  0  0  0  0  0  0  0  0  0  0
   -3.3402   -1.7553   -0.4195 H   0  0  0  0  0  0  0  0  0  0  0  0
   -3.2295   -3.2975    0.4435 H   0  0  0  0  0  0  0  0  0  0  0  0
   -4.8586   -2.4873    2.1498 H   0  0  0  0  0  0  0  0  0  0  0  0
   -5.5445   -2.4844    0.5240 H   0  0  0  0  0  0  0  0  0  0  0  0
   -4.4111   -0.0327    1.9791 H   0  0  0  0  0  0  0  0  0  0  0  0
   -5.0428   -0.0281    0.3330 H   0  0  0  0  0  0  0  0  0  0  0  0
   -6.6472   -0.7877    2.8309 H   0  0  0  0  0  0  0  0  0  0  0  0
   -7.2699   -0.7681    1.1821 H   0  0  0  0  0  0  0  0  0  0  0  0
   -6.6829    1.6919    1.0314 H   0  0  0  0  0  0  0  0  0  0  0  0
   -6.1550    1.6412    2.7142 H   0  0  0  0  0  0  0  0  0  0  0  0
   -8.9853    1.0004    1.7192 H   0  0  0  0  0  0  0  0  0  0  0  0
   -8.4585    0.9090    3.4044 H   0  0  0  0  0  0  0  0  0  0  0  0
   -8.3709    3.4308    1.6715 H   0  0  0  0  0  0  0  0  0  0  0  0
   -7.8734    3.3369    3.3619 H   0  0  0  0  0  0  0  0  0  0  0  0
  -10.2165    2.5940    3.9693 H   0  0  0  0  0  0  0  0  0  0  0  0
  -10.7042    2.8240    2.2940 H   0  0  0  0  0  0  0  0  0  0  0  0
   -9.5564    5.0113    4.1138 H   0  0  0  0  0  0  0  0  0  0  0  0
  -11.2666    4.7414    3.8288 H   0  0  0  0  0  0  0  0  0  0  0  0
   -9.2389    5.5334    1.6459 H   0  0  0  0  0  0  0  0  0  0  0  0
  -10.9380    5.1889    1.3694 H   0  0  0  0  0  0  0  0  0  0  0  0
   -8.7076    7.1555    3.0337 H   0  0  0  0  0  0  0  0  0  0  0  0
  1 48  1  0  0  0  0
  1 49  1  0  0  0  0
  1 50  1  0  0  0  0
  2  1  1  1  0  0  0
  2  3  1  0  0  0  0
  2 10  1  0  0  0  0
  2 14  1  0  0  0  0
  3  4  1  0  0  0  0
  3 51  1  0  0  0  0
  3 52  1  0  0  0  0
  4  5  1  0  0  0  0
  4 53  1  0  0  0  0
  4 54  1  0  0  0  0
  5  6  1  0  0  0  0
  5  9  1  0  0  0  0
  5 32  1  6  0  0  0
  6  7  1  0  0  0  0
  6 55  1  0  0  0  0
  6 56  1  0  0  0  0
  7  8  1  0  0  0  0
  7 57  1  0  0  0  0
  7 58  1  0  0  0  0
  8  9  1  0  0  0  0
  8 28  1  0  0  0  0
  8 59  1  6  0  0  0
  9 10  1  0  0  0  0
  9 60  1  1  0  0  0
 10 11  1  0  0  0  0
 10 61  1  6  0  0  0
 11 12  1  0  0  0  0
 11 62  1  0  0  0  0
 11 63  1  0  0  0  0
 12 13  1  0  0  0  0
 12 64  1  0  0  0  0
 12 65  1  0  0  0  0
 13 14  1  0  0  0  0
 13 18  1  0  0  0  0
 13 66  1  1  0  0  0
 14 15  1  0  0  0  0
 14 27  1  6  0  0  0
 15 16  1  0  0  0  0
 15 67  1  0  0  0  0
 15 68  1  0  0  0  0
 16 17  1  0  0  0  0
 16 69  1  0  0  0  0
 16 70  1  0  0  0  0
 17 18  1  0  0  0  0
 17 22  1  0  0  0  0
 17 71  1  1  0  0  0
 18 19  1  0  0  0  0
 18 26  1  6  0  0  0
 19 20  1  0  0  0  0
 19 72  1  0  0  0  0
 19 73  1  0  0  0  0
 20 21  1  0  0  0  0
 20 74  1  0  0  0  0
 20 75  1  0  0  0  0
 21 22  1  0  0  0  0
 21 25  1  0  0  0  0
 21 76  1  1  0  0  0
 22 23  1  0  0  0  0
 22 24  1  0  0  0  0
 23 77  1  0  0  0  0
 23 78  1  0  0  0  0
 23 79  1  0  0  0  0
 24 80  1  0  0  0  0
 24 81  1  0  0  0  0
 24 82  1  0  0  0  0
 25 83  1  0  0  0  0
 26 84  1  0  0  0  0
 26 85  1  0  0  0  0
 26 86  1  0  0  0  0
 27 87  1  0  0  0  0
 27 88  1  0  0  0  0
 27 89  1  0  0  0  0
 28 29  2  0  0  0  0
 28 30  1  0  0  0  0
 29 90  1  0  0  0  0
 29 91  1  0  0  0  0
 30 31  1  0  0  0  0
 30 92  1  0  0  0  0
 30 93  1  0  0  0  0
 31 94  1  0  0  0  0
 31 95  1  0  0  0  0
 32 33  2  0  0  0  0
 32 34  1  0  0  0  0
 34 35  1  0  0  0  0
 34 96  1  0  0  0  0
 35 36  1  0  0  0  0
 35 97  1  0  0  0  0
 35 98  1  0  0  0  0
 36 37  1  0  0  0  0
 36 99  1  0  0  0  0
 36100  1  0  0  0  0
 37 38  1  0  0  0  0
 37101  1  0  0  0  0
 37102  1  0  0  0  0
 38 39  1  0  0  0  0
 38103  1  0  0  0  0
 38104  1  0  0  0  0
 39 40  1  0  0  0  0
 39105  1  0  0  0  0
 39106  1  0  0  0  0
 40 41  1  0  0  0  0
 40107  1  0  0  0  0
 40108  1  0  0  0  0
 41 42  1  0  0  0  0
 41109  1  0  0  0  0
 41110  1  0  0  0  0
 42 43  1  0  0  0  0
 42111  1  0  0  0  0
 42112  1  0  0  0  0
 43 44  1  0  0  0  0
 43113  1  0  0  0  0
 43114  1  0  0  0  0
 44 45  1  0  0  0  0
 44115  1  0  0  0  0
 44116  1  0  0  0  0
 45 46  2  0  0  0  0
 45 47  1  0  0  0  0
 47117  1  0  0  0  0
M  END
