
 OpenBabel10072620093D

 32 33  0  0  0  0  0  0  0  0999 V2000
   -0.2843    1.0394   -0.9854 C   0  0  0  0  0  0  0  0  0  0  0  0
   -1.1961   -0.0066   -0.8037 C   0  0  0  0  0  0  0  0  0  0  0  0
   -0.8429   -1.1054   -0.0054 C   0  0  0  0  0  0  0  0  0  0  0  0
    0.4085   -1.1569    0.6237 C   0  0  0  0  0  0  0  0  0  0  0  0
    1.3126   -0.1052    0.4422 C   0  0  0  0  0  0  0  0  0  0  0  0
    0.9681    0.9877   -0.3633 C   0  0  0  0  0  0  0  0  0  0  0  0
    1.9215    2.0990   -0.5740 C   0  0  0  0  0  0  0  0  0  0  0  0
    3.0861    2.1116   -0.0062 N   0  0  0  0  0  0  0  0  0  0  0  0
    3.9151    3.2068   -0.2856 C   0  0  0  0  0  0  0  0  0  0  0  0
    3.6842    4.4594    0.2956 C   0  0  0  0  0  0  0  0  0  0  0  0
    4.5486    5.5291    0.0451 C   0  0  0  0  0  0  0  0  0  0  0  0
    5.6591    5.3359   -0.7817 C   0  0  0  0  0  0  0  0  0  0  0  0
    5.9020    4.0910   -1.3670 C   0  0  0  0  0  0  0  0  0  0  0  0
    5.0312    3.0294   -1.1090 C   0  0  0  0  0  0  0  0  0  0  0  0
    6.7539    6.6897   -1.0984 S   0  0  0  0  0  0  0  0  0  0  0  0
    7.7937    6.2665   -2.0075 O   0  0  0  0  0  0  0  0  0  0  0  0
    5.9723    7.8835   -1.3173 O   0  0  0  0  0  0  0  0  0  0  0  0
    7.5099    6.8887    0.3872 N   0  0  0  0  0  0  0  0  0  0  0  0
   -1.7890   -2.2160    0.1618 N   0  3  0  0  0  0  0  0  0  0  0  0
   -2.9538   -2.0405   -0.2241 O   0  0  0  0  0  0  0  0  0  0  0  0
   -1.3657   -3.2619    0.6730 O   0  5  0  0  0  0  0  0  0  0  0  0
   -0.5599    1.8869   -1.6094 H   0  0  0  0  0  0  0  0  0  0  0  0
   -2.1676    0.0459   -1.2920 H   0  0  0  0  0  0  0  0  0  0  0  0
    0.6935   -1.9979    1.2532 H   0  0  0  0  0  0  0  0  0  0  0  0
    2.2867   -0.1403    0.9280 H   0  0  0  0  0  0  0  0  0  0  0  0
    1.5972    2.9168   -1.2445 H   0  0  0  0  0  0  0  0  0  0  0  0
    2.8336    4.5978    0.9577 H   0  0  0  0  0  0  0  0  0  0  0  0
    4.3605    6.4961    0.5051 H   0  0  0  0  0  0  0  0  0  0  0  0
    6.7650    3.9325   -2.0093 H   0  0  0  0  0  0  0  0  0  0  0  0
    5.2245    2.0516   -1.5430 H   0  0  0  0  0  0  0  0  0  0  0  0
    8.5035    6.6724    0.3012 H   0  0  0  0  0  0  0  0  0  0  0  0
    7.3219    7.8246    0.7475 H   0  0  0  0  0  0  0  0  0  0  0  0
  1  2  2  0  0  0  0
  1  6  1  0  0  0  0
  1 22  1  0  0  0  0
  2  3  1  0  0  0  0
  2 23  1  0  0  0  0
  3  4  2  0  0  0  0
  3 19  1  0  0  0  0
  4  5  1  0  0  0  0
  4 24  1  0  0  0  0
  5  6  2  0  0  0  0
  5 25  1  0  0  0  0
  6  7  1  0  0  0  0
  7  8  2  3  0  0  0
  7 26  1  0  0  0  0
  8  9  1  0  0  0  0
  9 10  2  0  0  0  0
  9 14  1  0  0  0  0
 10 11  1  0  0  0  0
 10 27  1  0  0  0  0
 11 12  2  0  0  0  0
 11 28  1  0  0  0  0
 12 13  1  0  0  0  0
 12 15  1  0  0  0  0
 13 14  2  0  0  0  0
 13 29  1  0  0  0  0
 14 30  1  0  0  0  0
 15 16  2  0  0  0  0
 15 17  2  0  0  0  0
 15 18  1  0  0  0  0
 18 31  1  0  0  0  0
 18 32  1  0  0  0  0
 19 20  2  0  0  0  0
 19 21  1  0  0  0  0
M  CHG  2  19   1  21  -1
M  END
