
 OpenBabel10072620053D

 37 38  0  0  0  0  0  0  0  0999 V2000
    0.9088    0.1127    2.1561 C   0  0  0  0  0  0  0  0  0  0  0  0
    1.9826    0.8331    1.3607 C   0  0  0  0  0  0  0  0  0  0  0  0
    3.2210    0.0193    1.2165 N   0  0  0  0  0  0  0  0  0  0  0  0
    3.0682   -1.2828    0.5066 C   0  0  0  0  0  0  0  0  0  0  0  0
    2.7334   -1.1388   -0.9672 C   0  0  0  0  0  0  0  0  0  0  0  0
    4.6186    0.9146    0.7878 S   0  0  0  0  0  0  0  0  0  0  0  0
    5.7214    0.0181    0.5249 O   0  0  0  0  0  0  0  0  0  0  0  0
    4.2017    1.8823   -0.2097 O   0  0  0  0  0  0  0  0  0  0  0  0
    5.0020    1.8081    2.2798 C   0  0  0  0  0  0  0  0  0  0  0  0
    5.3946    1.1665    3.4646 C   0  0  0  0  0  0  0  0  0  0  0  0
    5.7271    1.9468    4.6331 C   0  0  0  0  0  0  0  0  0  0  0  0
    5.6219    3.3439    4.5575 C   0  0  0  0  0  0  0  0  0  0  0  0
    5.2323    3.9429    3.3716 C   0  0  0  0  0  0  0  0  0  0  0  0
    4.9298    3.2000    2.2345 C   0  0  0  0  0  0  0  0  0  0  0  0
    5.8844    4.1710    5.5698 N   0  0  0  0  0  0  0  0  0  0  0  0
    6.2723    3.6366    6.7214 C   0  0  0  0  0  0  0  0  0  0  0  0
    6.4353    2.3374    6.9301 N   0  0  0  0  0  0  0  0  0  0  0  0
    6.1612    1.5125    5.9068 C   0  0  0  0  0  0  0  0  0  0  0  0
    6.4365    0.1801    6.2022 N   0  0  0  0  0  0  0  0  0  0  0  0
    6.5860    4.4981    7.7519 N   0  0  0  0  0  0  0  0  0  0  0  0
    5.4165   -0.5706    3.5549 Cl  0  0  0  0  0  0  0  0  0  0  0  0
    0.0884    0.8008    2.3836 H   0  0  0  0  0  0  0  0  0  0  0  0
    1.3029   -0.2757    3.0999 H   0  0  0  0  0  0  0  0  0  0  0  0
    0.4823   -0.7217    1.5923 H   0  0  0  0  0  0  0  0  0  0  0  0
    2.2210    1.7530    1.9046 H   0  0  0  0  0  0  0  0  0  0  0  0
    1.5927    1.1217    0.3792 H   0  0  0  0  0  0  0  0  0  0  0  0
    2.2997   -1.8839    1.0039 H   0  0  0  0  0  0  0  0  0  0  0  0
    3.9912   -1.8623    0.6201 H   0  0  0  0  0  0  0  0  0  0  0  0
    1.7782   -0.6274   -1.1141 H   0  0  0  0  0  0  0  0  0  0  0  0
    2.6521   -2.1289   -1.4286 H   0  0  0  0  0  0  0  0  0  0  0  0
    3.5051   -0.5826   -1.5073 H   0  0  0  0  0  0  0  0  0  0  0  0
    5.1660    5.0300    3.3272 H   0  0  0  0  0  0  0  0  0  0  0  0
    4.6452    3.7226    1.3227 H   0  0  0  0  0  0  0  0  0  0  0  0
    6.6520    0.1020    7.1920 H   0  0  0  0  0  0  0  0  0  0  0  0
    5.7060   -0.4556    5.8993 H   0  0  0  0  0  0  0  0  0  0  0  0
    6.8364    5.4003    7.3698 H   0  0  0  0  0  0  0  0  0  0  0  0
    7.2622    4.0565    8.3599 H   0  0  0  0  0  0  0  0  0  0  0  0
  1  2  1  0  0  0  0
  1 22  1  0  0  0  0
  1 23  1  0  0  0  0
  1 24  1  0  0  0  0
  2  3  1  0  0  0  0
  2 25  1  0  0  0  0
  2 26  1  0  0  0  0
  3  4  1  0  0  0  0
  3  6  1  0  0  0  0
  4  5  1  0  0  0  0
  4 27  1  0  0  0  0
  4 28  1  0  0  0  0
  5 29  1  0  0  0  0
  5 30  1  0  0  0  0
  5 31  1  0  0  0  0
  6  7  2  0  0  0  0
  6  8  2  0  0  0  0
  6  9  1  0  0  0  0
  9 10  2  0  0  0  0
  9 14  1  0  0  0  0
 10 11  1  0  0  0  0
 10 21  1  0  0  0  0
 11 12  2  0  0  0  0
 11 18  1  0  0  0  0
 12 13  1  0  0  0  0
 12 15  1  0  0  0  0
 13 14  2  0  0  0  0
 13 32  1  0  0  0  0
 14 33  1  0  0  0  0
 15 16  2  0  0  0  0
 16 17  1  0  0  0  0
 16 20  1  0  0  0  0
 17 18  2  0  0  0  0
 18 19  1  0  0  0  0
 19 34  1  0  0  0  0
 19 35  1  0  0  0  0
 20 36  1  0  0  0  0
 20 37  1  0  0  0  0
M  END
