
 OpenBabel10072620173D

 31 32  0  0  1  0  0  0  0  0999 V2000
   -1.2808    0.7205   -0.2102 C   0  0  0  0  0  0  0  0  0  0  0  0
    0.1419    0.4062   -0.6554 C   0  0  0  0  0  0  0  0  0  0  0  0
    0.6458   -1.0092    0.3099 S   0  0  0  0  0  0  0  0  0  0  0  0
    0.9016   -2.1060   -0.6052 O   0  0  0  0  0  0  0  0  0  0  0  0
    1.5984   -0.5947    1.3151 O   0  0  0  0  0  0  0  0  0  0  0  0
   -0.9258   -1.3120    1.0899 C   0  0  0  0  0  0  0  0  0  0  0  0
   -1.9341   -0.6113    0.1871 C   0  0  3  0  0  0  0  0  0  0  0  0
   -2.2787   -1.4284   -0.9739 N   0  0  0  0  0  0  0  0  0  0  0  0
   -3.3888   -1.1357   -1.7428 C   0  0  0  0  0  0  0  0  0  0  0  0
   -4.1414   -0.2119   -1.4678 O   0  0  0  0  0  0  0  0  0  0  0  0
   -3.5072   -2.0178   -2.7931 N   0  0  0  0  0  0  0  0  0  0  0  0
   -4.4849   -2.0187   -3.8087 C   0  0  0  0  0  0  0  0  0  0  0  0
   -5.4439   -1.0152   -3.9718 C   0  0  0  0  0  0  0  0  0  0  0  0
   -6.3894   -1.0948   -5.0036 C   0  0  0  0  0  0  0  0  0  0  0  0
   -6.3750   -2.1789   -5.8856 C   0  0  0  0  0  0  0  0  0  0  0  0
   -5.4148   -3.1801   -5.7319 C   0  0  0  0  0  0  0  0  0  0  0  0
   -4.4760   -3.0984   -4.6997 C   0  0  0  0  0  0  0  0  0  0  0  0
   -7.5091   -2.3445   -7.1769 Cl  0  0  0  0  0  0  0  0  0  0  0  0
   -7.5488    0.1819   -5.1341 Cl  0  0  0  0  0  0  0  0  0  0  0  0
   -1.8277    1.2509   -0.9956 H   0  0  0  0  0  0  0  0  0  0  0  0
   -1.2468    1.3789    0.6666 H   0  0  0  0  0  0  0  0  0  0  0  0
    0.8264    1.2378   -0.4767 H   0  0  0  0  0  0  0  0  0  0  0  0
    0.1708    0.1208   -1.7107 H   0  0  0  0  0  0  0  0  0  0  0  0
   -0.8959   -0.8483    2.0804 H   0  0  0  0  0  0  0  0  0  0  0  0
   -1.0896   -2.3880    1.1825 H   0  0  0  0  0  0  0  0  0  0  0  0
   -2.8625   -0.4236    0.7385 H   0  0  0  0  0  0  0  0  0  0  0  0
   -1.5476   -1.9707   -1.4210 H   0  0  0  0  0  0  0  0  0  0  0  0
   -2.8837   -2.8116   -2.7700 H   0  0  0  0  0  0  0  0  0  0  0  0
   -5.4778   -0.1559   -3.3094 H   0  0  0  0  0  0  0  0  0  0  0  0
   -5.3909   -4.0289   -6.4112 H   0  0  0  0  0  0  0  0  0  0  0  0
   -3.7422   -3.8955   -4.6020 H   0  0  0  0  0  0  0  0  0  0  0  0
  1  2  1  0  0  0  0
  1  7  1  0  0  0  0
  1 20  1  0  0  0  0
  1 21  1  0  0  0  0
  2  3  1  0  0  0  0
  2 22  1  0  0  0  0
  2 23  1  0  0  0  0
  3  4  2  0  0  0  0
  3  5  2  0  0  0  0
  3  6  1  0  0  0  0
  6  7  1  0  0  0  0
  6 24  1  0  0  0  0
  6 25  1  0  0  0  0
  7  8  1  0  0  0  0
  7 26  1  0  0  0  0
  8  9  1  0  0  0  0
  8 27  1  0  0  0  0
  9 10  2  0  0  0  0
  9 11  1  0  0  0  0
 11 12  1  0  0  0  0
 11 28  1  0  0  0  0
 12 13  2  0  0  0  0
 12 17  1  0  0  0  0
 13 14  1  0  0  0  0
 13 29  1  0  0  0  0
 14 15  2  0  0  0  0
 14 19  1  0  0  0  0
 15 16  1  0  0  0  0
 15 18  1  0  0  0  0
 16 17  2  0  0  0  0
 16 30  1  0  0  0  0
 17 31  1  0  0  0  0
M  END
