
 OpenBabel10072619443D

 58 60  0  0  1  0  0  0  0  0999 V2000
    1.1771    1.9493    3.1022 C   0  0  0  0  0  0  0  0  0  0  0  0
    0.2655    0.8742    2.5909 C   0  0  0  0  0  0  0  0  0  0  0  0
   -0.6689    1.1452    1.5892 C   0  0  0  0  0  0  0  0  0  0  0  0
   -1.4832    0.1318    1.0547 C   0  0  0  0  0  0  0  0  0  0  0  0
   -1.3314   -1.1943    1.5218 C   0  0  0  0  0  0  0  0  0  0  0  0
   -0.4324   -1.4665    2.5763 C   0  0  0  0  0  0  0  0  0  0  0  0
    0.3796   -0.4321    3.0730 C   0  0  0  0  0  0  0  0  0  0  0  0
   -0.2995   -2.8123    3.2396 C   0  0  0  0  0  0  0  0  0  0  0  0
   -2.1474   -2.2171    0.9699 N   0  0  0  0  0  0  0  0  0  0  0  0
   -1.6819   -3.3995    0.3916 C   0  0  0  0  0  0  0  0  0  0  0  0
   -0.1362   -3.6734   -0.1925 S   0  0  0  0  0  0  0  0  0  0  0  0
   -2.7382   -4.3021    0.2869 N   0  0  0  0  0  0  0  0  0  0  0  0
   -2.5817   -5.6948   -0.1215 C   0  0  0  0  0  0  0  0  0  0  0  0
   -3.9161   -6.4131   -0.3281 C   0  0  3  0  0  0  0  0  0  0  0  0
   -3.7069   -7.9045   -0.6014 C   0  0  0  0  0  0  0  0  0  0  0  0
   -4.1189   -8.0816   -2.0522 C   0  0  0  0  0  0  0  0  0  0  0  0
   -5.1793   -7.0818   -2.2821 N   0  0  0  0  0  0  0  0  0  0  0  0
   -4.6696   -5.8992   -1.5625 C   0  0  0  0  0  0  0  0  0  0  0  0
   -6.5186   -7.5427   -1.8322 C   0  0  3  0  0  0  0  0  0  0  0  0
   -7.6127   -6.4932   -2.1044 C   0  0  0  0  0  0  0  0  0  0  0  0
   -6.9521   -8.8370   -2.5297 C   0  0  0  0  0  0  0  0  0  0  0  0
   -7.4019   -9.9320   -1.7743 C   0  0  0  0  0  0  0  0  0  0  0  0
   -7.7844  -11.1202   -2.4023 C   0  0  0  0  0  0  0  0  0  0  0  0
   -7.7282  -11.2287   -3.7902 C   0  0  0  0  0  0  0  0  0  0  0  0
   -7.2927  -10.1482   -4.5544 C   0  0  0  0  0  0  0  0  0  0  0  0
   -6.9101   -8.9597   -3.9292 C   0  0  0  0  0  0  0  0  0  0  0  0
   -2.4438    0.4995   -0.0447 C   0  0  0  0  0  0  0  0  0  0  0  0
    0.7285    2.9400    2.9715 H   0  0  0  0  0  0  0  0  0  0  0  0
    2.1256    1.9156    2.5566 H   0  0  0  0  0  0  0  0  0  0  0  0
    1.3753    1.8168    4.1715 H   0  0  0  0  0  0  0  0  0  0  0  0
   -0.7549    2.1622    1.2068 H   0  0  0  0  0  0  0  0  0  0  0  0
    1.1025   -0.6490    3.8585 H   0  0  0  0  0  0  0  0  0  0  0  0
   -1.1924   -3.4303    3.1117 H   0  0  0  0  0  0  0  0  0  0  0  0
   -0.1725   -2.6866    4.3212 H   0  0  0  0  0  0  0  0  0  0  0  0
    0.5730   -3.3477    2.8541 H   0  0  0  0  0  0  0  0  0  0  0  0
   -2.9845   -1.8935    0.5031 H   0  0  0  0  0  0  0  0  0  0  0  0
   -3.4649   -4.1246    0.9686 H   0  0  0  0  0  0  0  0  0  0  0  0
   -2.0040   -6.1903    0.6671 H   0  0  0  0  0  0  0  0  0  0  0  0
   -1.9845   -5.7373   -1.0383 H   0  0  0  0  0  0  0  0  0  0  0  0
   -4.5400   -6.3014    0.5682 H   0  0  0  0  0  0  0  0  0  0  0  0
   -4.3621   -8.4931    0.0527 H   0  0  0  0  0  0  0  0  0  0  0  0
   -2.6791   -8.2411   -0.4298 H   0  0  0  0  0  0  0  0  0  0  0  0
   -4.3928   -9.1149   -2.2805 H   0  0  0  0  0  0  0  0  0  0  0  0
   -3.2699   -7.8398   -2.7056 H   0  0  0  0  0  0  0  0  0  0  0  0
   -5.4297   -5.1624   -1.2906 H   0  0  0  0  0  0  0  0  0  0  0  0
   -3.9828   -5.3741   -2.2390 H   0  0  0  0  0  0  0  0  0  0  0  0
   -6.5008   -7.7228   -0.7492 H   0  0  0  0  0  0  0  0  0  0  0  0
   -7.6303   -6.1869   -3.1571 H   0  0  0  0  0  0  0  0  0  0  0  0
   -7.4825   -5.5941   -1.4953 H   0  0  0  0  0  0  0  0  0  0  0  0
   -8.6051   -6.8938   -1.8632 H   0  0  0  0  0  0  0  0  0  0  0  0
   -7.4538   -9.8695   -0.6902 H   0  0  0  0  0  0  0  0  0  0  0  0
   -8.1244  -11.9638   -1.8071 H   0  0  0  0  0  0  0  0  0  0  0  0
   -8.0214  -12.1552   -4.2770 H   0  0  0  0  0  0  0  0  0  0  0  0
   -7.2446  -10.2303   -5.6365 H   0  0  0  0  0  0  0  0  0  0  0  0
   -6.5600   -8.1266   -4.5358 H   0  0  0  0  0  0  0  0  0  0  0  0
   -2.3889    1.5671   -0.2876 H   0  0  0  0  0  0  0  0  0  0  0  0
   -3.4738    0.2891    0.2598 H   0  0  0  0  0  0  0  0  0  0  0  0
   -2.2074   -0.0539   -0.9589 H   0  0  0  0  0  0  0  0  0  0  0  0
  1  2  1  0  0  0  0
  1 28  1  0  0  0  0
  1 29  1  0  0  0  0
  1 30  1  0  0  0  0
  2  3  2  0  0  0  0
  2  7  1  0  0  0  0
  3  4  1  0  0  0  0
  3 31  1  0  0  0  0
  4  5  2  0  0  0  0
  4 27  1  0  0  0  0
  5  6  1  0  0  0  0
  5  9  1  0  0  0  0
  6  7  2  0  0  0  0
  6  8  1  0  0  0  0
  7 32  1  0  0  0  0
  8 33  1  0  0  0  0
  8 34  1  0  0  0  0
  8 35  1  0  0  0  0
  9 10  1  0  0  0  0
  9 36  1  0  0  0  0
 10 11  2  0  0  0  0
 10 12  1  0  0  0  0
 12 13  1  0  0  0  0
 12 37  1  0  0  0  0
 13 14  1  0  0  0  0
 13 38  1  0  0  0  0
 13 39  1  0  0  0  0
 14 15  1  0  0  0  0
 14 18  1  0  0  0  0
 14 40  1  0  0  0  0
 15 16  1  0  0  0  0
 15 41  1  0  0  0  0
 15 42  1  0  0  0  0
 16 17  1  0  0  0  0
 16 43  1  0  0  0  0
 16 44  1  0  0  0  0
 17 18  1  0  0  0  0
 17 19  1  0  0  0  0
 18 45  1  0  0  0  0
 18 46  1  0  0  0  0
 19 20  1  0  0  0  0
 19 21  1  0  0  0  0
 19 47  1  0  0  0  0
 20 48  1  0  0  0  0
 20 49  1  0  0  0  0
 20 50  1  0  0  0  0
 21 22  2  0  0  0  0
 21 26  1  0  0  0  0
 22 23  1  0  0  0  0
 22 51  1  0  0  0  0
 23 24  2  0  0  0  0
 23 52  1  0  0  0  0
 24 25  1  0  0  0  0
 24 53  1  0  0  0  0
 25 26  2  0  0  0  0
 25 54  1  0  0  0  0
 26 55  1  0  0  0  0
 27 56  1  0  0  0  0
 27 57  1  0  0  0  0
 27 58  1  0  0  0  0
M  END
