
 OpenBabel10072620003D

 48 50  0  0  0  0  0  0  0  0999 V2000
    1.4409    0.3240   -0.0349 C   0  0  0  0  0  0  0  0  0  0  0  0
    0.9509   -0.9830   -0.0338 C   0  0  0  0  0  0  0  0  0  0  0  0
   -0.4157   -1.2177    0.1124 C   0  0  0  0  0  0  0  0  0  0  0  0
   -1.2872   -0.1249    0.2460 C   0  0  0  0  0  0  0  0  0  0  0  0
   -0.8059    1.1872    0.2583 C   0  0  0  0  0  0  0  0  0  0  0  0
    0.5678    1.4034    0.1090 C   0  0  0  0  0  0  0  0  0  0  0  0
   -1.6310    2.3251    0.3930 N   0  0  0  0  0  0  0  0  0  0  0  0
   -2.9715    2.3545    0.7508 C   0  0  0  0  0  0  0  0  0  0  0  0
   -3.6278    1.3817    1.1002 O   0  0  0  0  0  0  0  0  0  0  0  0
   -3.4660    3.6472    0.6471 N   0  0  0  0  0  0  0  0  0  0  0  0
   -4.7333    4.1122    1.0559 C   0  0  0  0  0  0  0  0  0  0  0  0
   -5.6107    3.3746    1.8567 C   0  0  0  0  0  0  0  0  0  0  0  0
   -6.8483    3.9069    2.2406 C   0  0  0  0  0  0  0  0  0  0  0  0
   -7.2084    5.1925    1.8239 C   0  0  0  0  0  0  0  0  0  0  0  0
   -6.3382    5.9459    1.0285 C   0  0  0  0  0  0  0  0  0  0  0  0
   -5.1043    5.4031    0.6518 C   0  0  0  0  0  0  0  0  0  0  0  0
   -8.5030    5.7564    2.2269 N   0  3  0  0  0  0  0  0  0  0  0  0
   -9.2320    5.0686    2.9556 O   0  0  0  0  0  0  0  0  0  0  0  0
   -8.7895    6.8894    1.8140 O   0  5  0  0  0  0  0  0  0  0  0  0
   -0.9976   -2.5027    0.1049 N   0  0  0  0  0  0  0  0  0  0  0  0
   -0.3482   -3.7253    0.1959 C   0  0  0  0  0  0  0  0  0  0  0  0
    0.8483   -3.8764    0.4005 O   0  0  0  0  0  0  0  0  0  0  0  0
   -1.2615   -4.7567    0.0185 N   0  0  0  0  0  0  0  0  0  0  0  0
   -1.0406   -6.1367    0.1963 C   0  0  0  0  0  0  0  0  0  0  0  0
    0.0963   -6.6688    0.8125 C   0  0  0  0  0  0  0  0  0  0  0  0
    0.2341   -8.0519    0.9842 C   0  0  0  0  0  0  0  0  0  0  0  0
   -0.7760   -8.9092    0.5362 C   0  0  0  0  0  0  0  0  0  0  0  0
   -1.9210   -8.3910   -0.0791 C   0  0  0  0  0  0  0  0  0  0  0  0
   -2.0478   -7.0078   -0.2438 C   0  0  0  0  0  0  0  0  0  0  0  0
   -0.6418  -10.3596    0.7189 N   0  3  0  0  0  0  0  0  0  0  0  0
    0.3570  -10.7764    1.3241 O   0  0  0  0  0  0  0  0  0  0  0  0
   -1.5360  -11.0824    0.2581 O   0  5  0  0  0  0  0  0  0  0  0  0
    2.5088    0.4971   -0.1456 H   0  0  0  0  0  0  0  0  0  0  0  0
    1.6592   -1.7966   -0.1609 H   0  0  0  0  0  0  0  0  0  0  0  0
   -2.3513   -0.3166    0.3370 H   0  0  0  0  0  0  0  0  0  0  0  0
    0.9809    2.4083    0.1043 H   0  0  0  0  0  0  0  0  0  0  0  0
   -1.1558    3.2146    0.3928 H   0  0  0  0  0  0  0  0  0  0  0  0
   -2.9195    4.2788    0.0813 H   0  0  0  0  0  0  0  0  0  0  0  0
   -5.3554    2.3798    2.2126 H   0  0  0  0  0  0  0  0  0  0  0  0
   -7.5098    3.3058    2.8613 H   0  0  0  0  0  0  0  0  0  0  0  0
   -6.6003    6.9490    0.6972 H   0  0  0  0  0  0  0  0  0  0  0  0
   -4.4425    6.0041    0.0325 H   0  0  0  0  0  0  0  0  0  0  0  0
   -1.9993   -2.5279    0.2295 H   0  0  0  0  0  0  0  0  0  0  0  0
   -2.1272   -4.4950   -0.4291 H   0  0  0  0  0  0  0  0  0  0  0  0
    0.8928   -6.0291    1.1839 H   0  0  0  0  0  0  0  0  0  0  0  0
    1.1305   -8.4352    1.4681 H   0  0  0  0  0  0  0  0  0  0  0  0
   -2.7184   -9.0424   -0.4309 H   0  0  0  0  0  0  0  0  0  0  0  0
   -2.9445   -6.6234   -0.7246 H   0  0  0  0  0  0  0  0  0  0  0  0
  1  2  2  0  0  0  0
  1  6  1  0  0  0  0
  1 33  1  0  0  0  0
  2  3  1  0  0  0  0
  2 34  1  0  0  0  0
  3  4  2  0  0  0  0
  3 20  1  0  0  0  0
  4  5  1  0  0  0  0
  4 35  1  0  0  0  0
  5  6  2  0  0  0  0
  5  7  1  0  0  0  0
  6 36  1  0  0  0  0
  7  8  1  0  0  0  0
  7 37  1  0  0  0  0
  8  9  2  0  0  0  0
  8 10  1  0  0  0  0
 10 11  1  0  0  0  0
 10 38  1  0  0  0  0
 11 12  2  0  0  0  0
 11 16  1  0  0  0  0
 12 13  1  0  0  0  0
 12 39  1  0  0  0  0
 13 14  2  0  0  0  0
 13 40  1  0  0  0  0
 14 15  1  0  0  0  0
 14 17  1  0  0  0  0
 15 16  2  0  0  0  0
 15 41  1  0  0  0  0
 16 42  1  0  0  0  0
 17 18  2  0  0  0  0
 17 19  1  0  0  0  0
 20 21  1  0  0  0  0
 20 43  1  0  0  0  0
 21 22  2  0  0  0  0
 21 23  1  0  0  0  0
 23 24  1  0  0  0  0
 23 44  1  0  0  0  0
 24 25  2  0  0  0  0
 24 29  1  0  0  0  0
 25 26  1  0  0  0  0
 25 45  1  0  0  0  0
 26 27  2  0  0  0  0
 26 46  1  0  0  0  0
 27 28  1  0  0  0  0
 27 30  1  0  0  0  0
 28 29  2  0  0  0  0
 28 47  1  0  0  0  0
 29 48  1  0  0  0  0
 30 31  2  0  0  0  0
 30 32  1  0  0  0  0
M  CHG  4  17   1  19  -1  30   1  32  -1
M  END
