
 OpenBabel10072620173D

 49 52  0  0  0  0  0  0  0  0999 V2000
    0.9840    0.4046   -0.0449 C   0  0  0  0  0  0  0  0  0  0  0  0
    2.4712    0.3416    0.1472 C   0  0  0  0  0  0  0  0  0  0  0  0
    3.1596   -0.8701   -0.0063 C   0  0  0  0  0  0  0  0  0  0  0  0
    4.5438   -0.9536    0.1123 C   0  0  0  0  0  0  0  0  0  0  0  0
    5.2803    0.2233    0.3976 C   0  0  0  0  0  0  0  0  0  0  0  0
    4.5944    1.4242    0.5538 C   0  0  0  0  0  0  0  0  0  0  0  0
    3.2045    1.4924    0.4218 C   0  0  0  0  0  0  0  0  0  0  0  0
    6.6230    0.2117    0.4938 N   0  0  0  0  0  0  0  0  0  0  0  0
    7.2036   -0.9896    0.3027 C   0  0  0  0  0  0  0  0  0  0  0  0
    6.4983   -2.1823    0.0500 C   0  0  0  0  0  0  0  0  0  0  0  0
    5.1535   -2.1494   -0.0657 N   0  0  0  0  0  0  0  0  0  0  0  0
    7.2299   -3.3898   -0.1237 N   0  0  0  0  0  0  0  0  0  0  0  0
    6.8154   -4.5596   -0.7935 C   0  0  0  0  0  0  0  0  0  0  0  0
    7.3136   -5.8030   -0.3841 C   0  0  0  0  0  0  0  0  0  0  0  0
    6.9719   -6.9757   -1.0618 C   0  0  0  0  0  0  0  0  0  0  0  0
    6.1457   -6.9196   -2.1818 C   0  0  0  0  0  0  0  0  0  0  0  0
    5.6726   -5.6856   -2.6472 C   0  0  0  0  0  0  0  0  0  0  0  0
    6.0115   -4.5158   -1.9398 C   0  0  0  0  0  0  0  0  0  0  0  0
    4.7910   -5.6059   -3.8694 C   0  0  0  0  0  0  0  0  0  0  0  0
    4.8939   -6.6955   -4.6843 F   0  0  0  0  0  0  0  0  0  0  0  0
    3.4706   -5.5025   -3.5553 F   0  0  0  0  0  0  0  0  0  0  0  0
    5.0707   -4.5303   -4.6580 F   0  0  0  0  0  0  0  0  0  0  0  0
    8.6272   -0.9577    0.3336 N   0  0  0  0  0  0  0  0  0  0  0  0
    9.2604   -1.3054    1.8569 S   0  0  0  0  0  0  0  0  0  0  0  0
    8.3452   -0.9420    2.9160 O   0  0  0  0  0  0  0  0  0  0  0  0
    9.7767   -2.6519    1.7374 O   0  0  0  0  0  0  0  0  0  0  0  0
   10.6195   -0.1679    1.8989 C   0  0  0  0  0  0  0  0  0  0  0  0
   10.3503    1.1967    1.7325 C   0  0  0  0  0  0  0  0  0  0  0  0
   11.4106    2.1020    1.6819 C   0  0  0  0  0  0  0  0  0  0  0  0
   12.7227    1.6410    1.8014 C   0  0  0  0  0  0  0  0  0  0  0  0
   12.9834    0.2796    1.9828 C   0  0  0  0  0  0  0  0  0  0  0  0
   11.9292   -0.6362    2.0321 C   0  0  0  0  0  0  0  0  0  0  0  0
   14.0314    2.7572    1.7218 Cl  0  0  0  0  0  0  0  0  0  0  0  0
    0.5150   -0.5576    0.1859 H   0  0  0  0  0  0  0  0  0  0  0  0
    0.7490    0.6680   -1.0807 H   0  0  0  0  0  0  0  0  0  0  0  0
    0.5337    1.1512    0.6174 H   0  0  0  0  0  0  0  0  0  0  0  0
    2.6062   -1.7785   -0.2313 H   0  0  0  0  0  0  0  0  0  0  0  0
    5.1537    2.3298    0.7728 H   0  0  0  0  0  0  0  0  0  0  0  0
    2.7018    2.4512    0.5320 H   0  0  0  0  0  0  0  0  0  0  0  0
    7.7611   -3.5975    0.7211 H   0  0  0  0  0  0  0  0  0  0  0  0
    7.9678   -5.8722    0.4817 H   0  0  0  0  0  0  0  0  0  0  0  0
    7.3493   -7.9332   -0.7105 H   0  0  0  0  0  0  0  0  0  0  0  0
    5.8772   -7.8446   -2.6907 H   0  0  0  0  0  0  0  0  0  0  0  0
    5.6568   -3.5538   -2.3063 H   0  0  0  0  0  0  0  0  0  0  0  0
    8.9925   -1.6641   -0.3117 H   0  0  0  0  0  0  0  0  0  0  0  0
    9.3236    1.5485    1.6268 H   0  0  0  0  0  0  0  0  0  0  0  0
   11.2071    3.1603    1.5445 H   0  0  0  0  0  0  0  0  0  0  0  0
   14.0068   -0.0743    2.0729 H   0  0  0  0  0  0  0  0  0  0  0  0
   12.1346   -1.6980    2.1591 H   0  0  0  0  0  0  0  0  0  0  0  0
  1  2  1  0  0  0  0
  1 34  1  0  0  0  0
  1 35  1  0  0  0  0
  1 36  1  0  0  0  0
  2  3  2  0  0  0  0
  2  7  1  0  0  0  0
  3  4  1  0  0  0  0
  3 37  1  0  0  0  0
  4  5  2  0  0  0  0
  4 11  1  0  0  0  0
  5  6  1  0  0  0  0
  5  8  1  0  0  0  0
  6  7  2  0  0  0  0
  6 38  1  0  0  0  0
  7 39  1  0  0  0  0
  8  9  2  0  0  0  0
  9 10  1  0  0  0  0
  9 23  1  0  0  0  0
 10 11  2  0  0  0  0
 10 12  1  0  0  0  0
 12 13  1  0  0  0  0
 12 40  1  0  0  0  0
 13 14  2  0  0  0  0
 13 18  1  0  0  0  0
 14 15  1  0  0  0  0
 14 41  1  0  0  0  0
 15 16  2  0  0  0  0
 15 42  1  0  0  0  0
 16 17  1  0  0  0  0
 16 43  1  0  0  0  0
 17 18  2  0  0  0  0
 17 19  1  0  0  0  0
 18 44  1  0  0  0  0
 19 20  1  0  0  0  0
 19 21  1  0  0  0  0
 19 22  1  0  0  0  0
 23 24  1  0  0  0  0
 23 45  1  0  0  0  0
 24 25  2  0  0  0  0
 24 26  2  0  0  0  0
 24 27  1  0  0  0  0
 27 28  2  0  0  0  0
 27 32  1  0  0  0  0
 28 29  1  0  0  0  0
 28 46  1  0  0  0  0
 29 30  2  0  0  0  0
 29 47  1  0  0  0  0
 30 31  1  0  0  0  0
 30 33  1  0  0  0  0
 31 32  2  0  0  0  0
 31 48  1  0  0  0  0
 32 49  1  0  0  0  0
M  END
