
 OpenBabel10072619573D

 72 76  0  0  1  0  0  0  0  0999 V2000
    2.2002   -1.7855    0.7282 C   0  0  0  0  0  0  0  0  0  0  0  0
    2.3172   -2.5055   -0.6159 C   0  0  0  0  0  0  0  0  0  0  0  0
    1.8071   -1.6518   -1.7860 C   0  0  3  0  0  0  0  0  0  0  0  0
    2.4514   -0.2539   -1.7740 C   0  0  0  0  0  0  0  0  0  0  0  0
    2.4115    0.4482   -0.4152 C   0  0  0  0  0  0  0  0  0  0  0  0
    2.9096   -0.4239    0.7474 C   0  0  3  0  0  0  0  0  0  0  0  0
    4.4388   -0.6032    0.7621 C   0  0  0  0  0  0  0  0  0  0  0  0
    5.0963    0.7008    0.9660 N   0  0  0  0  0  0  0  0  0  0  0  0
    6.7845    0.7040    0.9129 S   0  0  0  0  0  0  0  0  0  0  0  0
    7.2241    2.0494    1.2010 O   0  0  0  0  0  0  0  0  0  0  0  0
    7.2433   -0.4278    1.6895 O   0  0  0  0  0  0  0  0  0  0  0  0
    7.3046    0.3596   -0.7470 C   0  0  0  0  0  0  0  0  0  0  0  0
    8.1877   -0.5699   -1.2685 C   0  0  0  0  0  0  0  0  0  0  0  0
    8.2865   -0.4858   -2.6891 C   0  0  0  0  0  0  0  0  0  0  0  0
    7.4739    0.5041   -3.1807 C   0  0  0  0  0  0  0  0  0  0  0  0
    6.6083    1.3253   -1.9782 S   0  0  0  0  0  0  0  0  0  0  0  0
    7.3341    0.9116   -5.0036 Br  0  0  0  0  0  0  0  0  0  0  0  0
    0.2685   -1.6011   -1.7806 C   0  0  0  0  0  0  0  0  0  0  0  0
   -0.3342   -0.5732   -1.4701 O   0  0  0  0  0  0  0  0  0  0  0  0
   -0.4190   -2.7824   -2.0680 N   0  0  0  0  0  0  0  0  0  0  0  0
   -1.8828   -2.7189   -2.0036 C   0  0  0  0  0  0  0  0  0  0  0  0
   -2.5456   -4.1074   -1.9126 C   0  0  0  0  0  0  0  0  0  0  0  0
   -2.0903   -5.0936   -2.9280 N   0  0  0  0  0  0  0  0  0  0  0  0
   -0.6139   -5.1694   -2.8146 C   0  0  0  0  0  0  0  0  0  0  0  0
    0.1286   -3.8256   -2.9432 C   0  0  0  0  0  0  0  0  0  0  0  0
   -2.5531   -4.7439   -4.3045 C   0  0  3  0  0  0  0  0  0  0  0  0
   -2.0119   -5.6756   -5.3980 C   0  0  0  0  0  0  0  0  0  0  0  0
   -2.0433   -7.0745   -5.2651 C   0  0  0  0  0  0  0  0  0  0  0  0
   -1.5669   -7.8997   -6.2861 C   0  0  0  0  0  0  0  0  0  0  0  0
   -1.0617   -7.3408   -7.4577 C   0  0  0  0  0  0  0  0  0  0  0  0
   -1.0271   -5.9568   -7.6090 C   0  0  0  0  0  0  0  0  0  0  0  0
   -1.4997   -5.1291   -6.5883 C   0  0  0  0  0  0  0  0  0  0  0  0
   -4.0833   -4.6598   -4.4182 C   0  0  0  0  0  0  0  0  0  0  0  0
   -4.6745   -3.5729   -5.0863 C   0  0  0  0  0  0  0  0  0  0  0  0
   -6.0633   -3.4832   -5.2108 C   0  0  0  0  0  0  0  0  0  0  0  0
   -6.8742   -4.4790   -4.6718 C   0  0  0  0  0  0  0  0  0  0  0  0
   -6.3097   -5.5664   -4.0108 C   0  0  0  0  0  0  0  0  0  0  0  0
   -4.9210   -5.6578   -3.8866 C   0  0  0  0  0  0  0  0  0  0  0  0
   -8.5847   -4.3608   -4.8207 Cl  0  0  0  0  0  0  0  0  0  0  0  0
    2.6003   -2.4294    1.5199 H   0  0  0  0  0  0  0  0  0  0  0  0
    1.1387   -1.6369    0.9628 H   0  0  0  0  0  0  0  0  0  0  0  0
    1.7681   -3.4511   -0.5473 H   0  0  0  0  0  0  0  0  0  0  0  0
    3.3641   -2.7747   -0.7999 H   0  0  0  0  0  0  0  0  0  0  0  0
    2.1115   -2.1108   -2.7340 H   0  0  0  0  0  0  0  0  0  0  0  0
    1.9726    0.3885   -2.5240 H   0  0  0  0  0  0  0  0  0  0  0  0
    3.5000   -0.3526   -2.0829 H   0  0  0  0  0  0  0  0  0  0  0  0
    1.3806    0.7536   -0.2002 H   0  0  0  0  0  0  0  0  0  0  0  0
    2.9851    1.3806   -0.4752 H   0  0  0  0  0  0  0  0  0  0  0  0
    2.6305    0.0823    1.6819 H   0  0  0  0  0  0  0  0  0  0  0  0
    4.7897   -1.0533   -0.1705 H   0  0  0  0  0  0  0  0  0  0  0  0
    4.7104   -1.2662    1.5912 H   0  0  0  0  0  0  0  0  0  0  0  0
    4.7903    1.1979    1.8038 H   0  0  0  0  0  0  0  0  0  0  0  0
    8.7333   -1.2729   -0.6490 H   0  0  0  0  0  0  0  0  0  0  0  0
    8.9198   -1.1172   -3.3009 H   0  0  0  0  0  0  0  0  0  0  0  0
   -2.2312   -2.1744   -2.8888 H   0  0  0  0  0  0  0  0  0  0  0  0
   -2.1778   -2.1285   -1.1282 H   0  0  0  0  0  0  0  0  0  0  0  0
   -3.6348   -3.9938   -1.9214 H   0  0  0  0  0  0  0  0  0  0  0  0
   -2.3190   -4.5293   -0.9235 H   0  0  0  0  0  0  0  0  0  0  0  0
   -0.1885   -5.8887   -3.5221 H   0  0  0  0  0  0  0  0  0  0  0  0
   -0.3841   -5.5890   -1.8252 H   0  0  0  0  0  0  0  0  0  0  0  0
    0.0755   -3.4461   -3.9703 H   0  0  0  0  0  0  0  0  0  0  0  0
    1.1845   -3.9960   -2.7214 H   0  0  0  0  0  0  0  0  0  0  0  0
   -2.1647   -3.7430   -4.5321 H   0  0  0  0  0  0  0  0  0  0  0  0
   -2.4346   -7.5270   -4.3566 H   0  0  0  0  0  0  0  0  0  0  0  0
   -1.5959   -8.9798   -6.1681 H   0  0  0  0  0  0  0  0  0  0  0  0
   -0.7001   -7.9846   -8.2556 H   0  0  0  0  0  0  0  0  0  0  0  0
   -0.6400   -5.5212   -8.5265 H   0  0  0  0  0  0  0  0  0  0  0  0
   -1.4728   -4.0516   -6.7338 H   0  0  0  0  0  0  0  0  0  0  0  0
   -4.0569   -2.7879   -5.5176 H   0  0  0  0  0  0  0  0  0  0  0  0
   -6.5042   -2.6369   -5.7303 H   0  0  0  0  0  0  0  0  0  0  0  0
   -6.9409   -6.3445   -3.5906 H   0  0  0  0  0  0  0  0  0  0  0  0
   -4.4905   -6.5088   -3.3623 H   0  0  0  0  0  0  0  0  0  0  0  0
  1  2  1  0  0  0  0
  1  6  1  0  0  0  0
  1 40  1  0  0  0  0
  1 41  1  0  0  0  0
  2  3  1  0  0  0  0
  2 42  1  0  0  0  0
  2 43  1  0  0  0  0
  3  4  1  0  0  0  0
  3 18  1  0  0  0  0
  3 44  1  0  0  0  0
  4  5  1  0  0  0  0
  4 45  1  0  0  0  0
  4 46  1  0  0  0  0
  5  6  1  0  0  0  0
  5 47  1  0  0  0  0
  5 48  1  0  0  0  0
  6  7  1  0  0  0  0
  6 49  1  0  0  0  0
  7  8  1  0  0  0  0
  7 50  1  0  0  0  0
  7 51  1  0  0  0  0
  8  9  1  0  0  0  0
  8 52  1  0  0  0  0
  9 10  2  0  0  0  0
  9 11  2  0  0  0  0
  9 12  1  0  0  0  0
 12 13  2  0  0  0  0
 12 16  1  0  0  0  0
 13 14  1  0  0  0  0
 13 53  1  0  0  0  0
 14 15  2  0  0  0  0
 14 54  1  0  0  0  0
 15 16  1  0  0  0  0
 15 17  1  0  0  0  0
 18 19  2  0  0  0  0
 18 20  1  0  0  0  0
 20 21  1  0  0  0  0
 20 25  1  0  0  0  0
 21 22  1  0  0  0  0
 21 55  1  0  0  0  0
 21 56  1  0  0  0  0
 22 23  1  0  0  0  0
 22 57  1  0  0  0  0
 22 58  1  0  0  0  0
 23 24  1  0  0  0  0
 23 26  1  0  0  0  0
 24 25  1  0  0  0  0
 24 59  1  0  0  0  0
 24 60  1  0  0  0  0
 25 61  1  0  0  0  0
 25 62  1  0  0  0  0
 26 27  1  0  0  0  0
 26 33  1  0  0  0  0
 26 63  1  0  0  0  0
 27 28  2  0  0  0  0
 27 32  1  0  0  0  0
 28 29  1  0  0  0  0
 28 64  1  0  0  0  0
 29 30  2  0  0  0  0
 29 65  1  0  0  0  0
 30 31  1  0  0  0  0
 30 66  1  0  0  0  0
 31 32  2  0  0  0  0
 31 67  1  0  0  0  0
 32 68  1  0  0  0  0
 33 34  2  0  0  0  0
 33 38  1  0  0  0  0
 34 35  1  0  0  0  0
 34 69  1  0  0  0  0
 35 36  2  0  0  0  0
 35 70  1  0  0  0  0
 36 37  1  0  0  0  0
 36 39  1  0  0  0  0
 37 38  2  0  0  0  0
 37 71  1  0  0  0  0
 38 72  1  0  0  0  0
M  END
