
 OpenBabel10072619573D

 45 47  0  0  0  0  0  0  0  0999 V2000
   -0.1662    1.2266    0.0184 C   0  0  0  0  0  0  0  0  0  0  0  0
   -1.3263    0.4535    0.1365 C   0  0  0  0  0  0  0  0  0  0  0  0
   -1.2289   -0.9420    0.1347 C   0  0  0  0  0  0  0  0  0  0  0  0
    0.0188   -1.5618    0.0149 C   0  0  0  0  0  0  0  0  0  0  0  0
    1.1730   -0.7773   -0.1048 C   0  0  0  0  0  0  0  0  0  0  0  0
    1.0911    0.6184   -0.1107 C   0  0  0  0  0  0  0  0  0  0  0  0
    2.2102    1.4698   -0.2154 N   0  0  0  0  0  0  0  0  0  0  0  0
    3.5147    1.1125   -0.5295 C   0  0  0  0  0  0  0  0  0  0  0  0
    3.8712   -0.0070   -0.8694 O   0  0  0  0  0  0  0  0  0  0  0  0
    4.3502    2.2150   -0.4129 N   0  0  0  0  0  0  0  0  0  0  0  0
    5.7098    2.3027   -0.7776 C   0  0  0  0  0  0  0  0  0  0  0  0
    6.3896    1.3137   -1.4946 C   0  0  0  0  0  0  0  0  0  0  0  0
    7.7411    1.4723   -1.8212 C   0  0  0  0  0  0  0  0  0  0  0  0
    8.4103    2.6388   -1.4484 C   0  0  0  0  0  0  0  0  0  0  0  0
    7.7458    3.6363   -0.7336 C   0  0  0  0  0  0  0  0  0  0  0  0
    6.3974    3.4675   -0.4060 C   0  0  0  0  0  0  0  0  0  0  0  0
   10.1345    2.8315   -1.8216 S   0  0  0  0  0  0  0  0  0  0  0  0
   10.7080    3.6745   -0.7941 O   0  0  0  0  0  0  0  0  0  0  0  0
   10.6969    1.5346   -2.1280 O   0  0  0  0  0  0  0  0  0  0  0  0
   10.1031    3.7810   -3.2258 N   0  0  0  0  0  0  0  0  0  0  0  0
    9.9835    3.1092   -4.4725 C   0  0  0  0  0  0  0  0  0  0  0  0
   11.1259    2.6617   -5.1357 C   0  0  0  0  0  0  0  0  0  0  0  0
   11.0023    1.9526   -6.3347 C   0  0  0  0  0  0  0  0  0  0  0  0
    9.7329    1.6875   -6.8629 C   0  0  0  0  0  0  0  0  0  0  0  0
    8.5928    2.1347   -6.1880 C   0  0  0  0  0  0  0  0  0  0  0  0
    8.7176    2.8425   -4.9908 C   0  0  0  0  0  0  0  0  0  0  0  0
    9.5046    0.8214   -8.3396 Cl  0  0  0  0  0  0  0  0  0  0  0  0
   12.4545    1.4297   -7.1120 Cl  0  0  0  0  0  0  0  0  0  0  0  0
   -2.4415   -1.7581    0.2668 N   0  3  0  0  0  0  0  0  0  0  0  0
   -3.5281   -1.1643    0.3345 O   0  0  0  0  0  0  0  0  0  0  0  0
   -2.3091   -2.9889    0.3061 O   0  5  0  0  0  0  0  0  0  0  0  0
   -0.2648    2.3098    0.0233 H   0  0  0  0  0  0  0  0  0  0  0  0
   -2.2892    0.9521    0.2276 H   0  0  0  0  0  0  0  0  0  0  0  0
    0.1173   -2.6455    0.0127 H   0  0  0  0  0  0  0  0  0  0  0  0
    2.1279   -1.2907   -0.1831 H   0  0  0  0  0  0  0  0  0  0  0  0
    2.0174    2.4595   -0.2146 H   0  0  0  0  0  0  0  0  0  0  0  0
    3.9878    2.9836    0.1301 H   0  0  0  0  0  0  0  0  0  0  0  0
    5.8961    0.3992   -1.8120 H   0  0  0  0  0  0  0  0  0  0  0  0
    8.2555    0.6810   -2.3630 H   0  0  0  0  0  0  0  0  0  0  0  0
    8.2685    4.5381   -0.4222 H   0  0  0  0  0  0  0  0  0  0  0  0
    5.8991    4.2551    0.1541 H   0  0  0  0  0  0  0  0  0  0  0  0
   10.8026    4.5211   -3.1551 H   0  0  0  0  0  0  0  0  0  0  0  0
   12.1111    2.8451   -4.7144 H   0  0  0  0  0  0  0  0  0  0  0  0
    7.6023    1.9311   -6.5887 H   0  0  0  0  0  0  0  0  0  0  0  0
    7.8240    3.1899   -4.4786 H   0  0  0  0  0  0  0  0  0  0  0  0
  1  2  2  0  0  0  0
  1  6  1  0  0  0  0
  1 32  1  0  0  0  0
  2  3  1  0  0  0  0
  2 33  1  0  0  0  0
  3  4  2  0  0  0  0
  3 29  1  0  0  0  0
  4  5  1  0  0  0  0
  4 34  1  0  0  0  0
  5  6  2  0  0  0  0
  5 35  1  0  0  0  0
  6  7  1  0  0  0  0
  7  8  1  0  0  0  0
  7 36  1  0  0  0  0
  8  9  2  0  0  0  0
  8 10  1  0  0  0  0
 10 11  1  0  0  0  0
 10 37  1  0  0  0  0
 11 12  2  0  0  0  0
 11 16  1  0  0  0  0
 12 13  1  0  0  0  0
 12 38  1  0  0  0  0
 13 14  2  0  0  0  0
 13 39  1  0  0  0  0
 14 15  1  0  0  0  0
 14 17  1  0  0  0  0
 15 16  2  0  0  0  0
 15 40  1  0  0  0  0
 16 41  1  0  0  0  0
 17 18  2  0  0  0  0
 17 19  2  0  0  0  0
 17 20  1  0  0  0  0
 20 21  1  0  0  0  0
 20 42  1  0  0  0  0
 21 22  2  0  0  0  0
 21 26  1  0  0  0  0
 22 23  1  0  0  0  0
 22 43  1  0  0  0  0
 23 24  2  0  0  0  0
 23 28  1  0  0  0  0
 24 25  1  0  0  0  0
 24 27  1  0  0  0  0
 25 26  2  0  0  0  0
 25 44  1  0  0  0  0
 26 45  1  0  0  0  0
 29 30  2  0  0  0  0
 29 31  1  0  0  0  0
M  CHG  2  29   1  31  -1
M  END
