
 OpenBabel10072620113D

 63 65  0  0  0  0  0  0  0  0999 V2000
    2.2470   -0.6016    0.0651 C   0  0  0  0  0  0  0  0  0  0  0  0
    2.0192    0.1841   -1.0681 C   0  0  0  0  0  0  0  0  0  0  0  0
    0.7237    0.4007   -1.5464 C   0  0  0  0  0  0  0  0  0  0  0  0
   -0.3107   -0.1934   -0.8280 C   0  0  0  0  0  0  0  0  0  0  0  0
   -0.1293   -0.9840    0.2981 C   0  0  0  0  0  0  0  0  0  0  0  0
    1.1824   -1.1993    0.7588 C   0  0  0  0  0  0  0  0  0  0  0  0
   -1.4352   -1.3707    0.7082 C   0  0  0  0  0  0  0  0  0  0  0  0
   -2.3275   -0.7653   -0.1588 C   0  0  0  0  0  0  0  0  0  0  0  0
   -1.6331   -0.0717   -1.1121 O   0  0  0  0  0  0  0  0  0  0  0  0
   -3.7841   -0.6707   -0.2351 C   0  0  0  0  0  0  0  0  0  0  0  0
   -4.4052    0.0968   -1.2288 C   0  0  0  0  0  0  0  0  0  0  0  0
   -5.8012    0.2905   -1.2568 C   0  0  0  0  0  0  0  0  0  0  0  0
   -6.5982   -0.3035   -0.2639 C   0  0  0  0  0  0  0  0  0  0  0  0
   -5.9929   -1.1137    0.6998 C   0  0  0  0  0  0  0  0  0  0  0  0
   -4.6021   -1.2936    0.7130 C   0  0  0  0  0  0  0  0  0  0  0  0
   -7.9353   -0.0125   -0.3114 O   0  0  0  0  0  0  0  0  0  0  0  0
   -8.7774   -0.5622    0.7056 C   0  0  0  0  0  0  0  0  0  0  0  0
  -10.1798    0.0467    0.5951 C   0  0  0  0  0  0  0  0  0  0  0  0
  -10.8377   -0.4389   -0.6179 N   0  0  0  0  0  0  0  0  0  0  0  0
  -12.0080   -0.0005   -0.8872 C   0  0  0  0  0  0  0  0  0  0  0  0
  -12.8016    0.8483   -0.1982 N   0  0  0  0  0  0  0  0  0  0  0  0
  -12.6156   -0.3963   -2.0250 N   0  0  0  0  0  0  0  0  0  0  0  0
   -6.3913    1.1840   -2.3280 C   0  0  0  0  0  0  0  0  0  0  0  0
   -6.5849    2.5753   -1.9018 N   0  0  0  0  0  0  0  0  0  0  0  0
   -5.3274    3.2935   -1.6975 C   0  0  0  0  0  0  0  0  0  0  0  0
   -5.6183    4.7757   -1.4554 C   0  0  0  0  0  0  0  0  0  0  0  0
   -4.3267    5.5642   -1.2276 C   0  0  0  0  0  0  0  0  0  0  0  0
   -4.6103    7.0540   -1.0482 C   0  0  0  0  0  0  0  0  0  0  0  0
   -3.3568    7.7271   -0.7205 N   0  0  0  0  0  0  0  0  0  0  0  0
   -3.3755    8.9974   -0.5719 C   0  0  0  0  0  0  0  0  0  0  0  0
   -4.4019    9.8703   -0.6681 N   0  0  0  0  0  0  0  0  0  0  0  0
   -2.2351    9.6560   -0.2753 N   0  0  0  0  0  0  0  0  0  0  0  0
    3.2655   -0.7478    0.4195 H   0  0  0  0  0  0  0  0  0  0  0  0
    2.8618    0.6382   -1.5856 H   0  0  0  0  0  0  0  0  0  0  0  0
    0.5263    1.0141   -2.4169 H   0  0  0  0  0  0  0  0  0  0  0  0
    1.3731   -1.7988    1.6435 H   0  0  0  0  0  0  0  0  0  0  0  0
   -1.6907   -1.9812    1.5618 H   0  0  0  0  0  0  0  0  0  0  0  0
   -3.7966    0.5915   -1.9848 H   0  0  0  0  0  0  0  0  0  0  0  0
   -6.5722   -1.6134    1.4693 H   0  0  0  0  0  0  0  0  0  0  0  0
   -4.1729   -1.9127    1.4963 H   0  0  0  0  0  0  0  0  0  0  0  0
   -8.3830   -0.2985    1.6939 H   0  0  0  0  0  0  0  0  0  0  0  0
   -8.8261   -1.6525    0.6003 H   0  0  0  0  0  0  0  0  0  0  0  0
  -10.0984    1.1405    0.5718 H   0  0  0  0  0  0  0  0  0  0  0  0
  -10.7590   -0.2562    1.4747 H   0  0  0  0  0  0  0  0  0  0  0  0
  -12.5299    0.9921    0.7659 H   0  0  0  0  0  0  0  0  0  0  0  0
  -13.7832    0.6048   -0.2692 H   0  0  0  0  0  0  0  0  0  0  0  0
  -11.9435   -0.8988   -2.5994 H   0  0  0  0  0  0  0  0  0  0  0  0
  -12.9976    0.3831   -2.5460 H   0  0  0  0  0  0  0  0  0  0  0  0
   -7.3614    0.7774   -2.6401 H   0  0  0  0  0  0  0  0  0  0  0  0
   -5.7745    1.1485   -3.2357 H   0  0  0  0  0  0  0  0  0  0  0  0
   -7.1191    2.5579   -1.0326 H   0  0  0  0  0  0  0  0  0  0  0  0
   -4.6866    3.1926   -2.5811 H   0  0  0  0  0  0  0  0  0  0  0  0
   -4.7845    2.8908   -0.8353 H   0  0  0  0  0  0  0  0  0  0  0  0
   -6.2725    4.8855   -0.5813 H   0  0  0  0  0  0  0  0  0  0  0  0
   -6.1559    5.1940   -2.3154 H   0  0  0  0  0  0  0  0  0  0  0  0
   -3.6479    5.4242   -2.0778 H   0  0  0  0  0  0  0  0  0  0  0  0
   -3.8066    5.1747   -0.3436 H   0  0  0  0  0  0  0  0  0  0  0  0
   -5.3378    7.1918   -0.2399 H   0  0  0  0  0  0  0  0  0  0  0  0
   -5.0341    7.4544   -1.9769 H   0  0  0  0  0  0  0  0  0  0  0  0
   -5.3160    9.4365   -0.6674 H   0  0  0  0  0  0  0  0  0  0  0  0
   -4.3475   10.5984    0.0355 H   0  0  0  0  0  0  0  0  0  0  0  0
   -1.4491    9.0160   -0.3400 H   0  0  0  0  0  0  0  0  0  0  0  0
   -2.0874   10.4522   -0.8831 H   0  0  0  0  0  0  0  0  0  0  0  0
  1  2  2  0  0  0  0
  1  6  1  0  0  0  0
  1 33  1  0  0  0  0
  2  3  1  0  0  0  0
  2 34  1  0  0  0  0
  3  4  2  0  0  0  0
  3 35  1  0  0  0  0
  4  5  1  0  0  0  0
  4  9  1  0  0  0  0
  5  6  2  0  0  0  0
  5  7  1  0  0  0  0
  6 36  1  0  0  0  0
  7  8  2  0  0  0  0
  7 37  1  0  0  0  0
  8  9  1  0  0  0  0
  8 10  1  0  0  0  0
 10 11  2  0  0  0  0
 10 15  1  0  0  0  0
 11 12  1  0  0  0  0
 11 38  1  0  0  0  0
 12 13  2  0  0  0  0
 12 23  1  0  0  0  0
 13 14  1  0  0  0  0
 13 16  1  0  0  0  0
 14 15  2  0  0  0  0
 14 39  1  0  0  0  0
 15 40  1  0  0  0  0
 16 17  1  0  0  0  0
 17 18  1  0  0  0  0
 17 41  1  0  0  0  0
 17 42  1  0  0  0  0
 18 19  1  0  0  0  0
 18 43  1  0  0  0  0
 18 44  1  0  0  0  0
 19 20  2  0  0  0  0
 20 21  1  0  0  0  0
 20 22  1  0  0  0  0
 21 45  1  0  0  0  0
 21 46  1  0  0  0  0
 22 47  1  0  0  0  0
 22 48  1  0  0  0  0
 23 24  1  0  0  0  0
 23 49  1  0  0  0  0
 23 50  1  0  0  0  0
 24 25  1  0  0  0  0
 24 51  1  0  0  0  0
 25 26  1  0  0  0  0
 25 52  1  0  0  0  0
 25 53  1  0  0  0  0
 26 27  1  0  0  0  0
 26 54  1  0  0  0  0
 26 55  1  0  0  0  0
 27 28  1  0  0  0  0
 27 56  1  0  0  0  0
 27 57  1  0  0  0  0
 28 29  1  0  0  0  0
 28 58  1  0  0  0  0
 28 59  1  0  0  0  0
 29 30  2  0  0  0  0
 30 31  1  0  0  0  0
 30 32  1  0  0  0  0
 31 60  1  0  0  0  0
 31 61  1  0  0  0  0
 32 62  1  0  0  0  0
 32 63  1  0  0  0  0
M  END
