
 OpenBabel10072620203D

 54 56  0  0  0  0  0  0  0  0999 V2000
    1.9191   -8.2311   -0.3550 C   0  0  0  0  0  0  0  0  0  0  0  0
    1.0932   -7.1072    0.1984 C   0  0  0  0  0  0  0  0  0  0  0  0
    1.2083   -5.8172   -0.3397 C   0  0  0  0  0  0  0  0  0  0  0  0
    0.4328   -4.7429    0.1403 C   0  0  0  0  0  0  0  0  0  0  0  0
   -0.4634   -4.9819    1.2000 C   0  0  0  0  0  0  0  0  0  0  0  0
   -0.5633   -6.2598    1.7659 C   0  0  0  0  0  0  0  0  0  0  0  0
    0.2306   -7.2989    1.2812 C   0  0  0  0  0  0  0  0  0  0  0  0
    0.0874   -8.5379    1.8455 O   0  0  0  0  0  0  0  0  0  0  0  0
    0.9873   -8.7062    2.9439 C   0  0  0  0  0  0  0  0  0  0  0  0
   -1.4870   -3.6907    1.8889 S   0  0  0  0  0  0  0  0  0  0  0  0
   -2.0945   -4.1728    3.1084 O   0  0  0  0  0  0  0  0  0  0  0  0
   -0.7357   -2.4538    1.8743 O   0  0  0  0  0  0  0  0  0  0  0  0
   -2.6777   -3.5475    0.7224 N   0  0  0  0  0  0  0  0  0  0  0  0
   -3.7821   -4.5076    0.6668 C   0  0  0  0  0  0  0  0  0  0  0  0
   -3.6763   -5.3966   -0.5749 C   0  0  0  0  0  0  0  0  0  0  0  0
   -4.8348   -6.3455   -0.6433 C   0  0  0  0  0  0  0  0  0  0  0  0
   -4.9156   -7.5901   -0.0375 C   0  0  0  0  0  0  0  0  0  0  0  0
   -6.1823   -8.0725   -0.2417 N   0  0  0  0  0  0  0  0  0  0  0  0
   -6.9350   -7.1764   -0.9587 C   0  0  0  0  0  0  0  0  0  0  0  0
   -6.1057   -6.1009   -1.2637 C   0  0  0  0  0  0  0  0  0  0  0  0
   -6.6470   -5.0399   -2.0208 C   0  0  0  0  0  0  0  0  0  0  0  0
   -7.9983   -5.0593   -2.4049 C   0  0  0  0  0  0  0  0  0  0  0  0
   -8.8019   -6.1433   -2.0546 C   0  0  0  0  0  0  0  0  0  0  0  0
   -8.2802   -7.2303   -1.3400 C   0  0  0  0  0  0  0  0  0  0  0  0
   -8.3913   -3.9546   -3.1108 O   0  0  0  0  0  0  0  0  0  0  0  0
   -9.7718   -3.8079   -3.4174 C   0  0  0  0  0  0  0  0  0  0  0  0
  -10.1893   -4.8352   -4.1990 F   0  0  0  0  0  0  0  0  0  0  0  0
  -10.4984   -3.8205   -2.2726 F   0  0  0  0  0  0  0  0  0  0  0  0
  -10.0281   -2.2782   -4.2651 Cl  0  0  0  0  0  0  0  0  0  0  0  0
   -3.9302   -8.3619    0.7592 C   0  0  0  0  0  0  0  0  0  0  0  0
    0.6459   -3.3898   -0.4819 C   0  0  0  0  0  0  0  0  0  0  0  0
    2.1916   -8.0473   -1.3993 H   0  0  0  0  0  0  0  0  0  0  0  0
    1.3557   -9.1685   -0.3365 H   0  0  0  0  0  0  0  0  0  0  0  0
    2.8373   -8.3551    0.2264 H   0  0  0  0  0  0  0  0  0  0  0  0
    1.9064   -5.6435   -1.1590 H   0  0  0  0  0  0  0  0  0  0  0  0
   -1.2621   -6.4604    2.5744 H   0  0  0  0  0  0  0  0  0  0  0  0
    0.4164   -9.0877    3.7956 H   0  0  0  0  0  0  0  0  0  0  0  0
    1.4971   -7.7851    3.2541 H   0  0  0  0  0  0  0  0  0  0  0  0
    1.7365   -9.4563    2.6716 H   0  0  0  0  0  0  0  0  0  0  0  0
   -2.7609   -2.6387    0.2710 H   0  0  0  0  0  0  0  0  0  0  0  0
   -4.7217   -3.9439    0.6445 H   0  0  0  0  0  0  0  0  0  0  0  0
   -3.8159   -5.1234    1.5728 H   0  0  0  0  0  0  0  0  0  0  0  0
   -2.7315   -5.9516   -0.5579 H   0  0  0  0  0  0  0  0  0  0  0  0
   -3.6366   -4.7702   -1.4738 H   0  0  0  0  0  0  0  0  0  0  0  0
   -6.5327   -8.9455    0.1280 H   0  0  0  0  0  0  0  0  0  0  0  0
   -6.0247   -4.1912   -2.2892 H   0  0  0  0  0  0  0  0  0  0  0  0
   -9.8554   -6.1917   -2.3191 H   0  0  0  0  0  0  0  0  0  0  0  0
   -8.9117   -8.0743   -1.0771 H   0  0  0  0  0  0  0  0  0  0  0  0
   -2.9048   -8.0635    0.5261 H   0  0  0  0  0  0  0  0  0  0  0  0
   -4.0238   -9.4314    0.5480 H   0  0  0  0  0  0  0  0  0  0  0  0
   -4.1033   -8.2003    1.8273 H   0  0  0  0  0  0  0  0  0  0  0  0
    1.1036   -3.4875   -1.4726 H   0  0  0  0  0  0  0  0  0  0  0  0
    1.3147   -2.7893    0.1440 H   0  0  0  0  0  0  0  0  0  0  0  0
   -0.2973   -2.8590   -0.6370 H   0  0  0  0  0  0  0  0  0  0  0  0
  1  2  1  0  0  0  0
  1 32  1  0  0  0  0
  1 33  1  0  0  0  0
  1 34  1  0  0  0  0
  2  3  2  0  0  0  0
  2  7  1  0  0  0  0
  3  4  1  0  0  0  0
  3 35  1  0  0  0  0
  4  5  2  0  0  0  0
  4 31  1  0  0  0  0
  5  6  1  0  0  0  0
  5 10  1  0  0  0  0
  6  7  2  0  0  0  0
  6 36  1  0  0  0  0
  7  8  1  0  0  0  0
  8  9  1  0  0  0  0
  9 37  1  0  0  0  0
  9 38  1  0  0  0  0
  9 39  1  0  0  0  0
 10 11  2  0  0  0  0
 10 12  2  0  0  0  0
 10 13  1  0  0  0  0
 13 14  1  0  0  0  0
 13 40  1  0  0  0  0
 14 15  1  0  0  0  0
 14 41  1  0  0  0  0
 14 42  1  0  0  0  0
 15 16  1  0  0  0  0
 15 43  1  0  0  0  0
 15 44  1  0  0  0  0
 16 17  2  0  0  0  0
 16 20  1  0  0  0  0
 17 18  1  0  0  0  0
 17 30  1  0  0  0  0
 18 19  1  0  0  0  0
 18 45  1  0  0  0  0
 19 20  2  0  0  0  0
 19 24  1  0  0  0  0
 20 21  1  0  0  0  0
 21 22  2  0  0  0  0
 21 46  1  0  0  0  0
 22 23  1  0  0  0  0
 22 25  1  0  0  0  0
 23 24  2  0  0  0  0
 23 47  1  0  0  0  0
 24 48  1  0  0  0  0
 25 26  1  0  0  0  0
 26 27  1  0  0  0  0
 26 28  1  0  0  0  0
 26 29  1  0  0  0  0
 30 49  1  0  0  0  0
 30 50  1  0  0  0  0
 30 51  1  0  0  0  0
 31 52  1  0  0  0  0
 31 53  1  0  0  0  0
 31 54  1  0  0  0  0
M  END
