
 OpenBabel10072619443D

 63 65  0  0  0  0  0  0  0  0999 V2000
    0.9136    0.7094   -0.3652 C   0  0  0  0  0  0  0  0  0  0  0  0
    2.4328    0.6886   -0.3237 C   0  0  0  0  0  0  0  0  0  0  0  0
    2.9752    1.3856    0.9250 C   0  0  0  0  0  0  0  0  0  0  0  0
    4.5036    1.3590    0.9410 C   0  0  0  0  0  0  0  0  0  0  0  0
    5.0780    2.0541    2.1763 C   0  0  0  0  0  0  0  0  0  0  0  0
    6.6064    2.0251    2.1426 C   0  0  0  0  0  0  0  0  0  0  0  0
    7.2174    2.6833    3.3777 C   0  0  0  0  0  0  0  0  0  0  0  0
    8.7434    2.7078    3.2791 C   0  0  0  0  0  0  0  0  0  0  0  0
    9.3650    3.3117    4.5337 C   0  0  0  0  0  0  0  0  0  0  0  0
   10.8821    3.3954    4.4272 C   0  0  0  0  0  0  0  0  0  0  0  0
   11.3793    3.9121    5.6610 O   0  0  0  0  0  0  0  0  0  0  0  0
   12.7867    4.0448    5.6564 C   0  0  0  0  0  0  0  0  0  0  0  0
   13.1833    4.5994    6.9624 N   0  3  0  0  0  0  0  0  0  0  0  0
   13.5739    3.7697    7.9500 C   0  0  0  0  0  0  0  0  0  0  0  0
   13.9102    4.2771    9.1921 C   0  0  0  0  0  0  0  0  0  0  0  0
   13.8240    5.6482    9.4088 C   0  0  0  0  0  0  0  0  0  0  0  0
   13.3709    6.5136    8.4064 C   0  0  0  0  0  0  0  0  0  0  0  0
   13.0724    5.9332    7.1701 C   0  0  0  0  0  0  0  0  0  0  0  0
   13.3923    7.8750    8.6726 N   0  0  0  0  0  0  0  0  0  0  0  0
   12.8540    8.9203    7.7944 C   0  0  0  0  0  0  0  0  0  0  0  0
   11.7607    9.6921    8.3682 N   0  0  0  0  0  0  0  0  0  0  0  0
   11.8362   10.7562    9.2256 C   0  0  0  0  0  0  0  0  0  0  0  0
   12.8871   11.4155    9.8725 C   0  0  0  0  0  0  0  0  0  0  0  0
   12.5427   12.5129   10.6718 C   0  0  0  0  0  0  0  0  0  0  0  0
   11.2147   12.9285   10.8044 C   0  0  0  0  0  0  0  0  0  0  0  0
   10.1790   12.2487   10.1488 C   0  0  0  0  0  0  0  0  0  0  0  0
   10.5056   11.1388    9.3571 C   0  0  0  0  0  0  0  0  0  0  0  0
    9.7101   10.2877    8.6341 N   0  0  0  0  0  0  0  0  0  0  0  0
   10.4890    9.3887    8.0465 N   0  0  0  0  0  0  0  0  0  0  0  0
    0.5538    0.2076   -1.2691 H   0  0  0  0  0  0  0  0  0  0  0  0
    0.5361    1.7368   -0.3736 H   0  0  0  0  0  0  0  0  0  0  0  0
    0.4897    0.1926    0.5017 H   0  0  0  0  0  0  0  0  0  0  0  0
    2.8233    1.1815   -1.2219 H   0  0  0  0  0  0  0  0  0  0  0  0
    2.7782   -0.3518   -0.3499 H   0  0  0  0  0  0  0  0  0  0  0  0
    2.5864    0.8896    1.8226 H   0  0  0  0  0  0  0  0  0  0  0  0
    2.6247    2.4246    0.9503 H   0  0  0  0  0  0  0  0  0  0  0  0
    4.8871    1.8472    0.0364 H   0  0  0  0  0  0  0  0  0  0  0  0
    4.8500    0.3186    0.9169 H   0  0  0  0  0  0  0  0  0  0  0  0
    4.7172    1.5564    3.0842 H   0  0  0  0  0  0  0  0  0  0  0  0
    4.7286    3.0931    2.2144 H   0  0  0  0  0  0  0  0  0  0  0  0
    6.9588    2.5388    1.2398 H   0  0  0  0  0  0  0  0  0  0  0  0
    6.9537    0.9867    2.0786 H   0  0  0  0  0  0  0  0  0  0  0  0
    6.9139    2.1353    4.2781 H   0  0  0  0  0  0  0  0  0  0  0  0
    6.8384    3.7076    3.4781 H   0  0  0  0  0  0  0  0  0  0  0  0
    9.0437    3.2899    2.3992 H   0  0  0  0  0  0  0  0  0  0  0  0
    9.1231    1.6881    3.1368 H   0  0  0  0  0  0  0  0  0  0  0  0
    9.0918    2.7146    5.4131 H   0  0  0  0  0  0  0  0  0  0  0  0
    8.9621    4.3163    4.7145 H   0  0  0  0  0  0  0  0  0  0  0  0
   11.1705    4.0636    3.6076 H   0  0  0  0  0  0  0  0  0  0  0  0
   11.3096    2.4028    4.2473 H   0  0  0  0  0  0  0  0  0  0  0  0
   13.1231    4.7382    4.8775 H   0  0  0  0  0  0  0  0  0  0  0  0
   13.2771    3.0755    5.5178 H   0  0  0  0  0  0  0  0  0  0  0  0
   13.6058    2.7042    7.7390 H   0  0  0  0  0  0  0  0  0  0  0  0
   14.2308    3.6112    9.9901 H   0  0  0  0  0  0  0  0  0  0  0  0
   14.1107    6.0388   10.3860 H   0  0  0  0  0  0  0  0  0  0  0  0
   12.7269    6.5064    6.3194 H   0  0  0  0  0  0  0  0  0  0  0  0
   13.2563    8.1058    9.6583 H   0  0  0  0  0  0  0  0  0  0  0  0
   12.4973    8.5400    6.8325 H   0  0  0  0  0  0  0  0  0  0  0  0
   13.6575    9.6305    7.5698 H   0  0  0  0  0  0  0  0  0  0  0  0
   13.9206   11.1026    9.7730 H   0  0  0  0  0  0  0  0  0  0  0  0
   13.3254   13.0583   11.1989 H   0  0  0  0  0  0  0  0  0  0  0  0
   10.9788   13.7919   11.4244 H   0  0  0  0  0  0  0  0  0  0  0  0
    9.1463   12.5662   10.2530 H   0  0  0  0  0  0  0  0  0  0  0  0
  1  2  1  0  0  0  0
  1 30  1  0  0  0  0
  1 31  1  0  0  0  0
  1 32  1  0  0  0  0
  2  3  1  0  0  0  0
  2 33  1  0  0  0  0
  2 34  1  0  0  0  0
  3  4  1  0  0  0  0
  3 35  1  0  0  0  0
  3 36  1  0  0  0  0
  4  5  1  0  0  0  0
  4 37  1  0  0  0  0
  4 38  1  0  0  0  0
  5  6  1  0  0  0  0
  5 39  1  0  0  0  0
  5 40  1  0  0  0  0
  6  7  1  0  0  0  0
  6 41  1  0  0  0  0
  6 42  1  0  0  0  0
  7  8  1  0  0  0  0
  7 43  1  0  0  0  0
  7 44  1  0  0  0  0
  8  9  1  0  0  0  0
  8 45  1  0  0  0  0
  8 46  1  0  0  0  0
  9 10  1  0  0  0  0
  9 47  1  0  0  0  0
  9 48  1  0  0  0  0
 10 11  1  0  0  0  0
 10 49  1  0  0  0  0
 10 50  1  0  0  0  0
 11 12  1  0  0  0  0
 12 13  1  0  0  0  0
 12 51  1  0  0  0  0
 12 52  1  0  0  0  0
 13 14  2  0  0  0  0
 13 18  1  0  0  0  0
 14 15  1  0  0  0  0
 14 53  1  0  0  0  0
 15 16  2  0  0  0  0
 15 54  1  0  0  0  0
 16 17  1  0  0  0  0
 16 55  1  0  0  0  0
 17 18  2  0  0  0  0
 17 19  1  0  0  0  0
 18 56  1  0  0  0  0
 19 20  1  0  0  0  0
 19 57  1  0  0  0  0
 20 21  1  0  0  0  0
 20 58  1  0  0  0  0
 20 59  1  0  0  0  0
 21 22  1  0  0  0  0
 21 29  1  0  0  0  0
 22 23  2  0  0  0  0
 22 27  1  0  0  0  0
 23 24  1  0  0  0  0
 23 60  1  0  0  0  0
 24 25  2  0  0  0  0
 24 61  1  0  0  0  0
 25 26  1  0  0  0  0
 25 62  1  0  0  0  0
 26 27  2  0  0  0  0
 26 63  1  0  0  0  0
 27 28  1  0  0  0  0
 28 29  2  0  0  0  0
M  CHG  1  13   1
M  END
