
 OpenBabel10072619583D

 45 46  0  0  0  0  0  0  0  0999 V2000
    2.8467    2.0577    0.5777 C   0  0  0  0  0  0  0  0  0  0  0  0
    3.6874    0.8266    0.3036 C   0  0  0  0  0  0  0  0  0  0  0  0
    3.5819   -0.3416    1.6503 S   0  0  0  0  0  0  0  0  0  0  0  0
    4.2424    0.2336    2.8012 O   0  0  0  0  0  0  0  0  0  0  0  0
    2.2306   -0.8553    1.7111 O   0  0  0  0  0  0  0  0  0  0  0  0
    4.5229   -1.6116    1.0093 N   0  0  0  0  0  0  0  0  0  0  0  0
    5.2926   -2.3321    1.9759 C   0  0  0  0  0  0  0  0  0  0  0  0
    4.6821   -3.2776    2.8025 C   0  0  0  0  0  0  0  0  0  0  0  0
    5.4451   -3.9705    3.7444 C   0  0  0  0  0  0  0  0  0  0  0  0
    6.8165   -3.7186    3.8484 C   0  0  0  0  0  0  0  0  0  0  0  0
    7.4113   -2.7334    3.0569 C   0  0  0  0  0  0  0  0  0  0  0  0
    6.6486   -2.0431    2.1122 C   0  0  0  0  0  0  0  0  0  0  0  0
    7.6236   -4.3635    4.7595 O   0  0  0  0  0  0  0  0  0  0  0  0
    7.5013   -5.7324    4.8614 C   0  0  0  0  0  0  0  0  0  0  0  0
    7.4191   -6.5716    3.7465 C   0  0  0  0  0  0  0  0  0  0  0  0
    7.3163   -7.9524    3.9238 C   0  0  0  0  0  0  0  0  0  0  0  0
    7.3010   -8.4884    5.2127 C   0  0  0  0  0  0  0  0  0  0  0  0
    7.4355   -7.6605    6.3254 C   0  0  0  0  0  0  0  0  0  0  0  0
    7.5423   -6.2787    6.1467 C   0  0  0  0  0  0  0  0  0  0  0  0
    7.2314   -9.9016    5.3940 N   0  0  0  0  0  0  0  0  0  0  0  0
    8.7034  -10.7443    5.2776 S   0  0  0  0  0  0  0  0  0  0  0  0
    8.4743  -11.7580    4.2694 O   0  0  0  0  0  0  0  0  0  0  0  0
    9.8121   -9.8221    5.1918 O   0  0  0  0  0  0  0  0  0  0  0  0
    8.7399  -11.5380    6.8772 C   0  0  0  0  0  0  0  0  0  0  0  0
    9.9303  -12.4666    7.0001 C   0  0  0  0  0  0  0  0  0  0  0  0
    2.9185    2.7618   -0.2561 H   0  0  0  0  0  0  0  0  0  0  0  0
    3.1715    2.5707    1.4887 H   0  0  0  0  0  0  0  0  0  0  0  0
    1.7933    1.7899    0.7059 H   0  0  0  0  0  0  0  0  0  0  0  0
    4.7400    1.0979    0.1797 H   0  0  0  0  0  0  0  0  0  0  0  0
    3.3302    0.3227   -0.5998 H   0  0  0  0  0  0  0  0  0  0  0  0
    3.8850   -2.2377    0.5117 H   0  0  0  0  0  0  0  0  0  0  0  0
    3.6163   -3.4760    2.7292 H   0  0  0  0  0  0  0  0  0  0  0  0
    4.9633   -4.6986    4.3918 H   0  0  0  0  0  0  0  0  0  0  0  0
    8.4682   -2.5085    3.1713 H   0  0  0  0  0  0  0  0  0  0  0  0
    7.1172   -1.2909    1.4844 H   0  0  0  0  0  0  0  0  0  0  0  0
    7.4424   -6.1646    2.7393 H   0  0  0  0  0  0  0  0  0  0  0  0
    7.2637   -8.5979    3.0515 H   0  0  0  0  0  0  0  0  0  0  0  0
    7.4492   -8.0782    7.3279 H   0  0  0  0  0  0  0  0  0  0  0  0
    7.6519   -5.6278    7.0096 H   0  0  0  0  0  0  0  0  0  0  0  0
    6.5734  -10.3535    4.7549 H   0  0  0  0  0  0  0  0  0  0  0  0
    7.8099  -12.1018    6.9855 H   0  0  0  0  0  0  0  0  0  0  0  0
    8.7799  -10.7534    7.6383 H   0  0  0  0  0  0  0  0  0  0  0  0
    9.8880  -13.2578    6.2446 H   0  0  0  0  0  0  0  0  0  0  0  0
    9.9469  -12.9357    7.9877 H   0  0  0  0  0  0  0  0  0  0  0  0
   10.8702  -11.9240    6.8614 H   0  0  0  0  0  0  0  0  0  0  0  0
  1  2  1  0  0  0  0
  1 26  1  0  0  0  0
  1 27  1  0  0  0  0
  1 28  1  0  0  0  0
  2  3  1  0  0  0  0
  2 29  1  0  0  0  0
  2 30  1  0  0  0  0
  3  4  2  0  0  0  0
  3  5  2  0  0  0  0
  3  6  1  0  0  0  0
  6  7  1  0  0  0  0
  6 31  1  0  0  0  0
  7  8  2  0  0  0  0
  7 12  1  0  0  0  0
  8  9  1  0  0  0  0
  8 32  1  0  0  0  0
  9 10  2  0  0  0  0
  9 33  1  0  0  0  0
 10 11  1  0  0  0  0
 10 13  1  0  0  0  0
 11 12  2  0  0  0  0
 11 34  1  0  0  0  0
 12 35  1  0  0  0  0
 13 14  1  0  0  0  0
 14 15  2  0  0  0  0
 14 19  1  0  0  0  0
 15 16  1  0  0  0  0
 15 36  1  0  0  0  0
 16 17  2  0  0  0  0
 16 37  1  0  0  0  0
 17 18  1  0  0  0  0
 17 20  1  0  0  0  0
 18 19  2  0  0  0  0
 18 38  1  0  0  0  0
 19 39  1  0  0  0  0
 20 21  1  0  0  0  0
 20 40  1  0  0  0  0
 21 22  2  0  0  0  0
 21 23  2  0  0  0  0
 21 24  1  0  0  0  0
 24 25  1  0  0  0  0
 24 41  1  0  0  0  0
 24 42  1  0  0  0  0
 25 43  1  0  0  0  0
 25 44  1  0  0  0  0
 25 45  1  0  0  0  0
M  END
