
 OpenBabel10072620003D

 49 51  0  0  1  0  0  0  0  0999 V2000
    1.1276   -0.5286   -1.9171 C   0  0  0  0  0  0  0  0  0  0  0  0
   -0.3680   -0.5013   -2.2345 C   0  0  1  0  0  0  0  0  0  0  0  0
   -0.9374   -1.5472   -1.2774 C   0  0  2  0  0  0  0  0  0  0  0  0
   -0.0002   -1.6274   -0.1700 O   0  0  0  0  0  0  0  0  0  0  0  0
    1.1430   -0.8380   -0.4210 C   0  0  1  0  0  0  0  0  0  0  0  0
    2.3619   -1.5793   -0.0665 N   0  0  0  0  0  0  0  0  0  0  0  0
    2.9143   -1.5063    1.2426 C   0  0  0  0  0  0  0  0  0  0  0  0
    4.2165   -1.9816    1.4684 C   0  0  0  0  0  0  0  0  0  0  0  0
    4.8034   -2.7214    0.5741 C   0  0  0  0  0  0  0  0  0  0  0  0
    5.9853   -3.1429    0.7754 O   0  0  0  0  0  0  0  0  0  0  0  0
    4.1342   -3.0544   -0.6112 N   0  0  0  0  0  0  0  0  0  0  0  0
    2.9654   -2.3439   -0.9781 C   0  0  0  0  0  0  0  0  0  0  0  0
    2.4988   -2.4334   -2.1569 O   0  0  0  0  0  0  0  0  0  0  0  0
    4.9401   -1.6314    2.7584 C   0  0  0  0  0  0  0  0  0  0  0  0
    5.1771   -0.3293    3.0733 C   0  0  0  0  0  0  0  0  0  0  0  0
    5.9007    0.0210    4.3633 C   0  0  0  0  0  0  0  0  0  0  0  0
    6.8569   -0.8828    4.9048 C   0  0  0  0  0  0  0  0  0  0  0  0
    7.3376   -0.6778    6.2084 C   0  0  0  0  0  0  0  0  0  0  0  0
    7.1297    0.4576    6.8076 C   0  0  0  0  0  0  0  0  0  0  0  0
    6.4354    1.4820    6.1502 C   0  0  0  0  0  0  0  0  0  0  0  0
    5.6956    1.1864    4.9794 C   0  0  0  0  0  0  0  0  0  0  0  0
    8.0759   -1.7470    6.8959 N   0  0  0  0  0  0  0  0  0  0  0  0
    7.8224   -2.9644    6.6335 N   0  3  0  0  0  0  0  0  0  0  0  0
    7.5688   -4.1818    6.3712 N   0  5  0  0  0  0  0  0  0  0  0  0
   -1.0502   -2.8941   -1.9728 C   0  0  0  0  0  0  0  0  0  0  0  0
   -1.5823   -3.8507   -1.0682 O   0  0  0  0  0  0  0  0  0  0  0  0
   -1.7086   -5.3842   -1.8590 P   0  0  0  0  0  0  0  0  0  0  0  0
   -0.2756   -5.7419   -1.3941 O   0  0  0  0  0  0  0  0  0  0  0  0
   -3.0660   -5.7853   -0.8644 O   0  0  0  0  0  0  0  0  0  0  0  0
   -1.8348   -6.9177   -2.6498 O   0  0  0  0  0  0  0  0  0  0  0  0
   -0.9125    0.7780   -1.9290 O   0  0  0  0  0  0  0  0  0  0  0  0
    1.5834    0.4178   -2.1209 H   0  0  0  0  0  0  0  0  0  0  0  0
    1.6752   -1.2358   -2.5044 H   0  0  0  0  0  0  0  0  0  0  0  0
   -0.5868   -0.6941   -3.2640 H   0  0  0  0  0  0  0  0  0  0  0  0
   -1.9181   -1.2803   -0.9429 H   0  0  0  0  0  0  0  0  0  0  0  0
    1.1333    0.0588    0.1626 H   0  0  0  0  0  0  0  0  0  0  0  0
    2.3633   -1.1079    2.0189 H   0  0  0  0  0  0  0  0  0  0  0  0
    4.4746   -3.7780   -1.1854 H   0  0  0  0  0  0  0  0  0  0  0  0
    5.2515   -2.3813    3.3953 H   0  0  0  0  0  0  0  0  0  0  0  0
    4.8657    0.4206    2.4364 H   0  0  0  0  0  0  0  0  0  0  0  0
    7.1941   -1.6814    4.3449 H   0  0  0  0  0  0  0  0  0  0  0  0
    7.4765    0.6044    7.7685 H   0  0  0  0  0  0  0  0  0  0  0  0
    6.4630    2.4461    6.5172 H   0  0  0  0  0  0  0  0  0  0  0  0
    5.0089    1.8617    4.6087 H   0  0  0  0  0  0  0  0  0  0  0  0
   -0.0807   -3.2104   -2.2969 H   0  0  0  0  0  0  0  0  0  0  0  0
   -1.6980   -2.8051   -2.8197 H   0  0  0  0  0  0  0  0  0  0  0  0
   -3.2530   -5.0496   -0.2604 H   0  0  0  0  0  0  0  0  0  0  0  0
   -1.1408   -6.9922   -3.3234 H   0  0  0  0  0  0  0  0  0  0  0  0
   -0.7347    0.9915   -0.9997 H   0  0  0  0  0  0  0  0  0  0  0  0
  1  2  1  0  0  0  0
  1  5  1  0  0  0  0
  1 32  1  0  0  0  0
  1 33  1  0  0  0  0
  2  3  1  0  0  0  0
  2 31  1  0  0  0  0
  2 34  1  6  0  0  0
  3  4  1  0  0  0  0
  3 25  1  0  0  0  0
  3 35  1  1  0  0  0
  4  5  1  0  0  0  0
  5  6  1  0  0  0  0
  5 36  1  1  0  0  0
  6  7  1  0  0  0  0
  6 12  1  0  0  0  0
  7  8  2  0  0  0  0
  7 37  1  0  0  0  0
  8  9  1  0  0  0  0
  8 14  1  0  0  0  0
  9 10  2  0  0  0  0
  9 11  1  0  0  0  0
 11 12  1  0  0  0  0
 11 38  1  0  0  0  0
 12 13  2  0  0  0  0
 14 15  2  0  0  0  0
 14 39  1  0  0  0  0
 15 16  1  0  0  0  0
 15 40  1  0  0  0  0
 16 17  2  0  0  0  0
 16 21  1  0  0  0  0
 17 18  1  0  0  0  0
 17 41  1  0  0  0  0
 18 19  2  0  0  0  0
 18 22  1  0  0  0  0
 19 20  1  0  0  0  0
 19 42  1  0  0  0  0
 20 21  2  0  0  0  0
 20 43  1  0  0  0  0
 21 44  1  0  0  0  0
 22 23  2  0  0  0  0
 23 24  2  0  0  0  0
 25 26  1  0  0  0  0
 25 45  1  0  0  0  0
 25 46  1  0  0  0  0
 26 27  1  0  0  0  0
 27 28  2  0  0  0  0
 27 29  1  0  0  0  0
 27 30  1  0  0  0  0
 29 47  1  0  0  0  0
 30 48  1  0  0  0  0
 31 49  1  0  0  0  0
M  CHG  2  23   1  24  -1
M  END
