
 OpenBabel10072619553D

 41 44  0  0  0  0  0  0  0  0999 V2000
    1.4436   -0.4668   -0.8575 C   0  0  0  0  0  0  0  0  0  0  0  0
    0.4788   -1.4682   -0.7360 C   0  0  0  0  0  0  0  0  0  0  0  0
   -0.8117   -1.1320   -0.3166 C   0  0  0  0  0  0  0  0  0  0  0  0
   -1.1483    0.1973   -0.0365 C   0  0  0  0  0  0  0  0  0  0  0  0
   -0.1785    1.1951   -0.1595 C   0  0  0  0  0  0  0  0  0  0  0  0
    1.1170    0.8572   -0.5585 C   0  0  0  0  0  0  0  0  0  0  0  0
    2.0995    1.8777   -0.7784 N   0  0  0  0  0  0  0  0  0  0  0  0
    1.9759    2.6283   -2.3102 S   0  0  0  0  0  0  0  0  0  0  0  0
    1.5214    1.6895   -3.3094 O   0  0  0  0  0  0  0  0  0  0  0  0
    1.3103    3.8912   -2.0686 O   0  0  0  0  0  0  0  0  0  0  0  0
    3.6833    2.9672   -2.6675 C   0  0  0  0  0  0  0  0  0  0  0  0
    4.5738    1.8898   -2.7575 C   0  0  0  0  0  0  0  0  0  0  0  0
    5.8887    2.1710   -3.0775 C   0  0  0  0  0  0  0  0  0  0  0  0
    6.3090    3.4814   -3.3086 C   0  0  0  0  0  0  0  0  0  0  0  0
    5.4388    4.5548   -3.2221 C   0  0  0  0  0  0  0  0  0  0  0  0
    4.1052    4.2918   -2.8940 C   0  0  0  0  0  0  0  0  0  0  0  0
    7.6597    3.5706   -3.6338 N   0  0  0  0  0  0  0  0  0  0  0  0
    8.3446    2.3781   -3.6716 C   0  0  0  0  0  0  0  0  0  0  0  0
    9.5280    2.2397   -3.9324 O   0  0  0  0  0  0  0  0  0  0  0  0
    7.2433    1.0470   -3.2763 S   0  0  0  0  0  0  0  0  0  0  0  0
   -2.0576   -2.4001   -0.2144 S   0  0  0  0  0  0  0  0  0  0  0  0
   -3.3456   -1.7386   -0.2458 O   0  0  0  0  0  0  0  0  0  0  0  0
   -1.7227   -3.4208   -1.1811 O   0  0  0  0  0  0  0  0  0  0  0  0
   -1.8427   -2.9137    1.3651 N   0  0  0  0  0  0  0  0  0  0  0  0
   -1.5898   -4.2847    1.5796 C   0  0  0  0  0  0  0  0  0  0  0  0
   -2.2745   -4.8641    2.5366 N   0  0  0  0  0  0  0  0  0  0  0  0
   -1.8577   -6.1753    2.6688 C   0  0  0  0  0  0  0  0  0  0  0  0
   -0.8280   -6.5570    1.8357 C   0  0  0  0  0  0  0  0  0  0  0  0
   -0.3456   -5.2208    0.8756 S   0  0  0  0  0  0  0  0  0  0  0  0
    2.4430   -0.7217   -1.1987 H   0  0  0  0  0  0  0  0  0  0  0  0
    0.7349   -2.4950   -0.9879 H   0  0  0  0  0  0  0  0  0  0  0  0
   -2.1611    0.4658    0.2564 H   0  0  0  0  0  0  0  0  0  0  0  0
   -0.4523    2.2294    0.0338 H   0  0  0  0  0  0  0  0  0  0  0  0
    1.9947    2.6298   -0.0926 H   0  0  0  0  0  0  0  0  0  0  0  0
    4.2418    0.8685   -2.5972 H   0  0  0  0  0  0  0  0  0  0  0  0
    5.7698    5.5708   -3.4121 H   0  0  0  0  0  0  0  0  0  0  0  0
    3.3969    5.1170   -2.8332 H   0  0  0  0  0  0  0  0  0  0  0  0
    8.1375    4.4341   -3.8426 H   0  0  0  0  0  0  0  0  0  0  0  0
   -2.6319   -2.6331    1.9458 H   0  0  0  0  0  0  0  0  0  0  0  0
   -2.3415   -6.8149    3.3981 H   0  0  0  0  0  0  0  0  0  0  0  0
   -0.3421   -7.5190    1.7580 H   0  0  0  0  0  0  0  0  0  0  0  0
  1  2  2  0  0  0  0
  1  6  1  0  0  0  0
  1 30  1  0  0  0  0
  2  3  1  0  0  0  0
  2 31  1  0  0  0  0
  3  4  2  0  0  0  0
  3 21  1  0  0  0  0
  4  5  1  0  0  0  0
  4 32  1  0  0  0  0
  5  6  2  0  0  0  0
  5 33  1  0  0  0  0
  6  7  1  0  0  0  0
  7  8  1  0  0  0  0
  7 34  1  0  0  0  0
  8  9  2  0  0  0  0
  8 10  2  0  0  0  0
  8 11  1  0  0  0  0
 11 12  2  0  0  0  0
 11 16  1  0  0  0  0
 12 13  1  0  0  0  0
 12 35  1  0  0  0  0
 13 14  2  0  0  0  0
 13 20  1  0  0  0  0
 14 15  1  0  0  0  0
 14 17  1  0  0  0  0
 15 16  2  0  0  0  0
 15 36  1  0  0  0  0
 16 37  1  0  0  0  0
 17 18  1  0  0  0  0
 17 38  1  0  0  0  0
 18 19  2  0  0  0  0
 18 20  1  0  0  0  0
 21 22  2  0  0  0  0
 21 23  2  0  0  0  0
 21 24  1  0  0  0  0
 24 25  1  0  0  0  0
 24 39  1  0  0  0  0
 25 26  2  0  0  0  0
 25 29  1  0  0  0  0
 26 27  1  0  0  0  0
 27 28  2  0  0  0  0
 27 40  1  0  0  0  0
 28 29  1  0  0  0  0
 28 41  1  0  0  0  0
M  END
