
 OpenBabel10072619553D

 59 62  0  0  0  0  0  0  0  0999 V2000
    2.0368    2.1077   -1.1066 C   0  0  0  0  0  0  0  0  0  0  0  0
    3.1624    1.2976   -0.7895 O   0  0  0  0  0  0  0  0  0  0  0  0
    3.4007    0.2190   -1.6026 C   0  0  0  0  0  0  0  0  0  0  0  0
    2.9058    0.1005   -2.9065 C   0  0  0  0  0  0  0  0  0  0  0  0
    3.2310   -1.0096   -3.7005 C   0  0  0  0  0  0  0  0  0  0  0  0
    4.0367   -2.0231   -3.1644 C   0  0  0  0  0  0  0  0  0  0  0  0
    4.5526   -1.9189   -1.8702 C   0  0  0  0  0  0  0  0  0  0  0  0
    4.2246   -0.7980   -1.0902 C   0  0  0  0  0  0  0  0  0  0  0  0
    4.7872   -0.7147    0.1642 O   0  0  0  0  0  0  0  0  0  0  0  0
    3.8004   -0.7414    1.1938 C   0  0  0  0  0  0  0  0  0  0  0  0
    5.3548   -2.8580   -1.2729 O   0  0  0  0  0  0  0  0  0  0  0  0
    5.8011   -3.9401   -2.0774 C   0  0  0  0  0  0  0  0  0  0  0  0
    2.7258   -1.1769   -5.0721 C   0  0  0  0  0  0  0  0  0  0  0  0
    2.5355   -0.1630   -5.9317 C   0  0  0  0  0  0  0  0  0  0  0  0
    2.0564   -0.3924   -7.2507 C   0  0  0  0  0  0  0  0  0  0  0  0
    1.9428   -1.5582   -7.8681 N   0  0  0  0  0  0  0  0  0  0  0  0
    1.4585   -1.2509   -9.1201 C   0  0  0  0  0  0  0  0  0  0  0  0
    1.2538    0.1088   -9.2475 C   0  0  0  0  0  0  0  0  0  0  0  0
    1.6493    0.6526   -8.0528 O   0  0  0  0  0  0  0  0  0  0  0  0
    0.7555    0.9748  -10.1759 N   0  0  0  0  0  0  0  0  0  0  0  0
    1.0583    2.4187  -10.0418 C   0  0  0  0  0  0  0  0  0  0  0  0
   -0.0232    3.2767  -10.7304 C   0  0  0  0  0  0  0  0  0  0  0  0
   -0.1794    2.8881  -12.1498 N   0  0  0  0  0  0  0  0  0  0  0  0
   -0.5015    1.4442  -12.2927 C   0  0  0  0  0  0  0  0  0  0  0  0
    0.5430    0.5538  -11.5756 C   0  0  0  0  0  0  0  0  0  0  0  0
   -0.9898    3.7040  -12.9617 C   0  0  0  0  0  0  0  0  0  0  0  0
   -0.8905    3.5925  -14.3592 C   0  0  0  0  0  0  0  0  0  0  0  0
   -1.6740    4.3795  -15.2052 C   0  0  0  0  0  0  0  0  0  0  0  0
   -2.5780    5.2961  -14.6800 C   0  0  0  0  0  0  0  0  0  0  0  0
   -2.6897    5.4296  -13.2995 C   0  0  0  0  0  0  0  0  0  0  0  0
   -1.8984    4.6452  -12.4529 C   0  0  0  0  0  0  0  0  0  0  0  0
   -1.5190    4.2120  -16.9111 Cl  0  0  0  0  0  0  0  0  0  0  0  0
    1.2291   -2.2855  -10.0712 C   0  0  0  0  0  0  0  0  0  0  0  0
    1.0424   -3.1138  -10.8661 N   0  0  0  0  0  0  0  0  0  0  0  0
    1.8609    2.7818   -0.2620 H   0  0  0  0  0  0  0  0  0  0  0  0
    1.1327    1.5029   -1.2429 H   0  0  0  0  0  0  0  0  0  0  0  0
    2.2355    2.7249   -1.9892 H   0  0  0  0  0  0  0  0  0  0  0  0
    2.2716    0.8751   -3.3233 H   0  0  0  0  0  0  0  0  0  0  0  0
    4.2616   -2.8861   -3.7830 H   0  0  0  0  0  0  0  0  0  0  0  0
    4.2012   -1.3241    2.0299 H   0  0  0  0  0  0  0  0  0  0  0  0
    2.8581   -1.2086    0.8801 H   0  0  0  0  0  0  0  0  0  0  0  0
    3.6163    0.2764    1.5524 H   0  0  0  0  0  0  0  0  0  0  0  0
    6.4716   -4.5566   -1.4709 H   0  0  0  0  0  0  0  0  0  0  0  0
    6.3689   -3.5818   -2.9431 H   0  0  0  0  0  0  0  0  0  0  0  0
    4.9605   -4.5697   -2.3881 H   0  0  0  0  0  0  0  0  0  0  0  0
    2.5288   -2.2020   -5.3851 H   0  0  0  0  0  0  0  0  0  0  0  0
    2.7436    0.8654   -5.6614 H   0  0  0  0  0  0  0  0  0  0  0  0
    2.0378    2.6265  -10.4907 H   0  0  0  0  0  0  0  0  0  0  0  0
    1.0988    2.7313   -8.9926 H   0  0  0  0  0  0  0  0  0  0  0  0
    0.2717    4.3304  -10.6553 H   0  0  0  0  0  0  0  0  0  0  0  0
   -0.9737    3.1394  -10.1989 H   0  0  0  0  0  0  0  0  0  0  0  0
   -0.5290    1.1375  -13.3448 H   0  0  0  0  0  0  0  0  0  0  0  0
   -1.4952    1.2548  -11.8640 H   0  0  0  0  0  0  0  0  0  0  0  0
    1.4970    0.5997  -12.1157 H   0  0  0  0  0  0  0  0  0  0  0  0
    0.1705   -0.4722  -11.6326 H   0  0  0  0  0  0  0  0  0  0  0  0
   -0.1772    2.8954  -14.7918 H   0  0  0  0  0  0  0  0  0  0  0  0
   -3.1927    5.9048  -15.3364 H   0  0  0  0  0  0  0  0  0  0  0  0
   -3.3954    6.1402  -12.8764 H   0  0  0  0  0  0  0  0  0  0  0  0
   -2.0312    4.7753  -11.3830 H   0  0  0  0  0  0  0  0  0  0  0  0
  1  2  1  0  0  0  0
  1 35  1  0  0  0  0
  1 36  1  0  0  0  0
  1 37  1  0  0  0  0
  2  3  1  0  0  0  0
  3  4  2  0  0  0  0
  3  8  1  0  0  0  0
  4  5  1  0  0  0  0
  4 38  1  0  0  0  0
  5  6  2  0  0  0  0
  5 13  1  0  0  0  0
  6  7  1  0  0  0  0
  6 39  1  0  0  0  0
  7  8  2  0  0  0  0
  7 11  1  0  0  0  0
  8  9  1  0  0  0  0
  9 10  1  0  0  0  0
 10 40  1  0  0  0  0
 10 41  1  0  0  0  0
 10 42  1  0  0  0  0
 11 12  1  0  0  0  0
 12 43  1  0  0  0  0
 12 44  1  0  0  0  0
 12 45  1  0  0  0  0
 13 14  2  0  0  0  0
 13 46  1  0  0  0  0
 14 15  1  0  0  0  0
 14 47  1  0  0  0  0
 15 16  2  0  0  0  0
 15 19  1  0  0  0  0
 16 17  1  0  0  0  0
 17 18  2  0  0  0  0
 17 33  1  0  0  0  0
 18 19  1  0  0  0  0
 18 20  1  0  0  0  0
 20 21  1  0  0  0  0
 20 25  1  0  0  0  0
 21 22  1  0  0  0  0
 21 48  1  0  0  0  0
 21 49  1  0  0  0  0
 22 23  1  0  0  0  0
 22 50  1  0  0  0  0
 22 51  1  0  0  0  0
 23 24  1  0  0  0  0
 23 26  1  0  0  0  0
 24 25  1  0  0  0  0
 24 52  1  0  0  0  0
 24 53  1  0  0  0  0
 25 54  1  0  0  0  0
 25 55  1  0  0  0  0
 26 27  2  0  0  0  0
 26 31  1  0  0  0  0
 27 28  1  0  0  0  0
 27 56  1  0  0  0  0
 28 29  2  0  0  0  0
 28 32  1  0  0  0  0
 29 30  1  0  0  0  0
 29 57  1  0  0  0  0
 30 31  2  0  0  0  0
 30 58  1  0  0  0  0
 31 59  1  0  0  0  0
 33 34  3  0  0  0  0
M  END
