
 OpenBabel10072620223D

 21 22  0  0  1  0  0  0  0  0999 V2000
    0.2336    0.2893    1.0275 C   0  0  0  0  0  0  0  0  0  0  0  0
    0.6041   -1.0366    0.4191 C   0  0  3  0  0  0  0  0  0  0  0  0
   -0.6765   -0.8216    1.0260 O   0  0  0  0  0  0  0  0  0  0  0  0
    1.4863   -2.0020    1.1407 C   0  0  0  0  0  0  0  0  0  0  0  0
    2.8458   -1.7357    0.7667 O   0  0  0  0  0  0  0  0  0  0  0  0
    3.6660   -1.6810    1.8624 C   0  0  0  0  0  0  0  0  0  0  0  0
    4.0401   -0.4126    2.3114 C   0  0  0  0  0  0  0  0  0  0  0  0
    4.9029   -0.2822    3.3998 C   0  0  0  0  0  0  0  0  0  0  0  0
    5.4024   -1.4199    4.0333 C   0  0  0  0  0  0  0  0  0  0  0  0
    5.0470   -2.6896    3.5727 C   0  0  0  0  0  0  0  0  0  0  0  0
    4.1865   -2.8231    2.4794 C   0  0  0  0  0  0  0  0  0  0  0  0
    3.7899   -4.5714    1.8640 Br  0  0  0  0  0  0  0  0  0  0  0  0
    0.0150    1.1155    0.3623 H   0  0  0  0  0  0  0  0  0  0  0  0
    0.6745    0.5733    1.9747 H   0  0  0  0  0  0  0  0  0  0  0  0
    0.6492   -1.1325   -0.6569 H   0  0  0  0  0  0  0  0  0  0  0  0
    1.2371   -3.0172    0.8139 H   0  0  0  0  0  0  0  0  0  0  0  0
    1.3239   -1.9444    2.2259 H   0  0  0  0  0  0  0  0  0  0  0  0
    3.6621    0.4746    1.8103 H   0  0  0  0  0  0  0  0  0  0  0  0
    5.1924    0.7058    3.7495 H   0  0  0  0  0  0  0  0  0  0  0  0
    6.0793   -1.3192    4.8782 H   0  0  0  0  0  0  0  0  0  0  0  0
    5.4552   -3.5682    4.0659 H   0  0  0  0  0  0  0  0  0  0  0  0
  1  2  1  0  0  0  0
  1  3  1  0  0  0  0
  1 13  1  0  0  0  0
  1 14  1  0  0  0  0
  2  3  1  0  0  0  0
  2  4  1  0  0  0  0
  2 15  1  0  0  0  0
  4  5  1  0  0  0  0
  4 16  1  0  0  0  0
  4 17  1  0  0  0  0
  5  6  1  0  0  0  0
  6  7  2  0  0  0  0
  6 11  1  0  0  0  0
  7  8  1  0  0  0  0
  7 18  1  0  0  0  0
  8  9  2  0  0  0  0
  8 19  1  0  0  0  0
  9 10  1  0  0  0  0
  9 20  1  0  0  0  0
 10 11  2  0  0  0  0
 10 21  1  0  0  0  0
 11 12  1  0  0  0  0
M  END
