
 OpenBabel10072619443D

 33 35  0  0  0  0  0  0  0  0999 V2000
   -2.2883    0.1285   -0.5777 C   0  0  0  0  0  0  0  0  0  0  0  0
   -1.5432   -0.7628    0.4661 C   0  0  0  0  0  0  0  0  0  0  0  0
   -0.1170   -0.5004    0.1413 C   0  0  0  0  0  0  0  0  0  0  0  0
    0.0085    0.5903   -0.6729 C   0  0  0  0  0  0  0  0  0  0  0  0
   -1.2789    1.2252   -1.0395 C   0  0  0  0  0  0  0  0  0  0  0  0
    1.5886    0.9811   -1.0441 S   0  0  0  0  0  0  0  0  0  0  0  0
    2.1538   -0.3915   -0.1658 C   0  0  0  0  0  0  0  0  0  0  0  0
    1.1341   -1.0767    0.4785 C   0  0  0  0  0  0  0  0  0  0  0  0
    1.2837   -2.1596    1.4042 C   0  0  0  0  0  0  0  0  0  0  0  0
    1.3284   -2.9950    2.2100 N   0  0  0  0  0  0  0  0  0  0  0  0
    3.5239   -0.5328   -0.2581 N   0  0  0  0  0  0  0  0  0  0  0  0
    4.1381   -1.7755   -0.2317 C   0  0  0  0  0  0  0  0  0  0  0  0
    3.5343   -2.8375   -0.2152 O   0  0  0  0  0  0  0  0  0  0  0  0
    5.5155   -1.6290   -0.2677 N   0  0  0  0  0  0  0  0  0  0  0  0
    6.4801   -2.6453   -0.4224 C   0  0  0  0  0  0  0  0  0  0  0  0
    6.1722   -3.9650   -0.7630 C   0  0  0  0  0  0  0  0  0  0  0  0
    7.1888   -4.9142   -0.9238 C   0  0  0  0  0  0  0  0  0  0  0  0
    8.5185   -4.5441   -0.7465 C   0  0  0  0  0  0  0  0  0  0  0  0
    8.8414   -3.2327   -0.4112 C   0  0  0  0  0  0  0  0  0  0  0  0
    7.8244   -2.2856   -0.2523 C   0  0  0  0  0  0  0  0  0  0  0  0
    9.7681   -5.7077   -0.9509 Cl  0  0  0  0  0  0  0  0  0  0  0  0
   -3.2123    0.5564   -0.1767 H   0  0  0  0  0  0  0  0  0  0  0  0
   -2.5620   -0.4911   -1.4423 H   0  0  0  0  0  0  0  0  0  0  0  0
   -1.8172   -1.8154    0.3520 H   0  0  0  0  0  0  0  0  0  0  0  0
   -1.7737   -0.4330    1.4844 H   0  0  0  0  0  0  0  0  0  0  0  0
   -1.3741    1.4243   -2.1104 H   0  0  0  0  0  0  0  0  0  0  0  0
   -1.4326    2.1516   -0.4768 H   0  0  0  0  0  0  0  0  0  0  0  0
    3.9926    0.1816   -0.7973 H   0  0  0  0  0  0  0  0  0  0  0  0
    5.8611   -0.7158   -0.0110 H   0  0  0  0  0  0  0  0  0  0  0  0
    5.1474   -4.2899   -0.9194 H   0  0  0  0  0  0  0  0  0  0  0  0
    6.9291   -5.9359   -1.1881 H   0  0  0  0  0  0  0  0  0  0  0  0
    9.8789   -2.9405   -0.2725 H   0  0  0  0  0  0  0  0  0  0  0  0
    8.1016   -1.2679    0.0087 H   0  0  0  0  0  0  0  0  0  0  0  0
  1  2  1  0  0  0  0
  1  5  1  0  0  0  0
  1 22  1  0  0  0  0
  1 23  1  0  0  0  0
  2  3  1  0  0  0  0
  2 24  1  0  0  0  0
  2 25  1  0  0  0  0
  3  4  2  0  0  0  0
  3  8  1  0  0  0  0
  4  5  1  0  0  0  0
  4  6  1  0  0  0  0
  5 26  1  0  0  0  0
  5 27  1  0  0  0  0
  6  7  1  0  0  0  0
  7  8  2  0  0  0  0
  7 11  1  0  0  0  0
  8  9  1  0  0  0  0
  9 10  3  0  0  0  0
 11 12  1  0  0  0  0
 11 28  1  0  0  0  0
 12 13  2  0  0  0  0
 12 14  1  0  0  0  0
 14 15  1  0  0  0  0
 14 29  1  0  0  0  0
 15 16  2  0  0  0  0
 15 20  1  0  0  0  0
 16 17  1  0  0  0  0
 16 30  1  0  0  0  0
 17 18  2  0  0  0  0
 17 31  1  0  0  0  0
 18 19  1  0  0  0  0
 18 21  1  0  0  0  0
 19 20  2  0  0  0  0
 19 32  1  0  0  0  0
 20 33  1  0  0  0  0
M  END
