
 OpenBabel10072620233D

102106  0  0  1  0  0  0  0  0999 V2000
    0.9088   -0.5890    1.2010 C   0  0  0  0  0  0  0  0  0  0  0  0
    1.6472   -1.5903    0.3327 C   0  0  0  0  0  0  0  0  0  0  0  0
    2.7409   -2.1692    1.0470 O   0  0  0  0  0  0  0  0  0  0  0  0
    3.8816   -1.4376    1.0981 C   0  0  0  0  0  0  0  0  0  0  0  0
    4.0544   -0.3318    0.6015 O   0  0  0  0  0  0  0  0  0  0  0  0
    4.9577   -2.0932    1.9345 C   0  0  3  0  0  0  0  0  0  0  0  0
    6.3046   -2.2681    1.2455 C   0  0  0  0  0  0  0  0  0  0  0  0
    5.4953   -3.4805    1.5976 C   0  0  3  0  0  0  0  0  0  0  0  0
    4.9586   -4.2995    0.5057 C   0  0  0  0  0  0  0  0  0  0  0  0
    3.9088   -5.1258    0.6077 C   0  0  0  0  0  0  0  0  0  0  0  0
    4.9891   -1.6717    3.3268 N   0  0  0  0  0  0  0  0  0  0  0  0
    3.9557   -1.9715    4.1901 C   0  0  0  0  0  0  0  0  0  0  0  0
    2.9792   -2.6429    3.8765 O   0  0  0  0  0  0  0  0  0  0  0  0
    4.0029   -1.2436    5.5372 C   0  0  3  0  0  0  0  0  0  0  0  0
    3.6860    0.2433    5.3241 C   0  0  0  0  0  0  0  0  0  0  0  0
    4.0156    0.8260    6.6932 C   0  0  2  0  0  0  0  0  0  0  0  0
    5.3061    0.0756    7.0412 C   0  0  0  0  0  0  0  0  0  0  0  0
    5.2619   -1.2001    6.3060 N   0  0  0  0  0  0  0  0  0  0  0  0
    5.5890   -2.3493    7.0412 C   0  0  0  0  0  0  0  0  0  0  0  0
    5.5210   -2.3947    8.2700 O   0  0  0  0  0  0  0  0  0  0  0  0
    6.1168   -3.5411    6.2131 C   0  0  3  0  0  0  0  0  0  0  0  0
    7.6398   -3.8173    6.4731 C   0  0  0  0  0  0  0  0  0  0  0  0
    7.9066   -4.3395    7.8988 C   0  0  0  0  0  0  0  0  0  0  0  0
    8.1628   -4.8680    5.4697 C   0  0  0  0  0  0  0  0  0  0  0  0
    8.4622   -2.5259    6.2728 C   0  0  0  0  0  0  0  0  0  0  0  0
    5.2751   -4.6859    6.5167 N   0  0  0  0  0  0  0  0  0  0  0  0
    4.9466   -5.6150    5.5802 C   0  0  0  0  0  0  0  0  0  0  0  0
    5.2117   -5.5184    4.3935 O   0  0  0  0  0  0  0  0  0  0  0  0
    4.3439   -6.6638    6.1793 O   0  0  0  0  0  0  0  0  0  0  0  0
    3.9879   -7.8307    5.3946 C   0  0  0  0  0  0  0  0  0  0  0  0
    5.2191   -8.4954    4.7621 C   0  0  0  0  0  0  0  0  0  0  0  0
    3.3862   -8.8115    6.4091 C   0  0  0  0  0  0  0  0  0  0  0  0
    2.9193   -7.4982    4.3483 C   0  0  0  0  0  0  0  0  0  0  0  0
    2.9490    0.4336    7.5603 O   0  0  0  0  0  0  0  0  0  0  0  0
    2.6501    1.1806    8.6666 C   0  0  0  0  0  0  0  0  0  0  0  0
    3.5219    2.0841    9.2663 C   0  0  0  0  0  0  0  0  0  0  0  0
    3.1004    2.7789   10.3970 C   0  0  0  0  0  0  0  0  0  0  0  0
    1.8716    2.5846   10.9305 N   0  0  0  0  0  0  0  0  0  0  0  0
    1.0347    1.6992   10.3684 C   0  0  0  0  0  0  0  0  0  0  0  0
    1.3711    0.9668    9.2205 C   0  0  0  0  0  0  0  0  0  0  0  0
    0.4220    0.0684    8.6759 C   0  0  0  0  0  0  0  0  0  0  0  0
   -0.8288   -0.1105    9.2717 C   0  0  0  0  0  0  0  0  0  0  0  0
   -1.1367    0.5867   10.4327 C   0  0  0  0  0  0  0  0  0  0  0  0
   -0.2076    1.4935   10.9517 C   0  0  0  0  0  0  0  0  0  0  0  0
   -2.3025    0.4781   11.1393 O   0  0  0  0  0  0  0  0  0  0  0  0
   -3.0061   -0.7496   10.9901 C   0  0  0  0  0  0  0  0  0  0  0  0
    3.9440    3.7566   11.1197 C   0  0  0  0  0  0  0  0  0  0  0  0
    3.3622    4.7974   11.8725 C   0  0  0  0  0  0  0  0  0  0  0  0
    4.1410    5.7146   12.5855 C   0  0  0  0  0  0  0  0  0  0  0  0
    5.5278    5.6219   12.5450 C   0  0  0  0  0  0  0  0  0  0  0  0
    6.1316    4.6063   11.8100 C   0  0  0  0  0  0  0  0  0  0  0  0
    5.3473    3.6878   11.1054 C   0  0  0  0  0  0  0  0  0  0  0  0
    0.0212   -0.2089    0.6875 H   0  0  0  0  0  0  0  0  0  0  0  0
    1.5506    0.2585    1.4599 H   0  0  0  0  0  0  0  0  0  0  0  0
    0.6031   -1.0529    2.1439 H   0  0  0  0  0  0  0  0  0  0  0  0
    1.9903   -1.1453   -0.6067 H   0  0  0  0  0  0  0  0  0  0  0  0
    0.9753   -2.4127    0.0705 H   0  0  0  0  0  0  0  0  0  0  0  0
    7.2040   -2.0729    1.8153 H   0  0  0  0  0  0  0  0  0  0  0  0
    6.3815   -1.9716    0.2044 H   0  0  0  0  0  0  0  0  0  0  0  0
    5.8509   -4.0751    2.4351 H   0  0  0  0  0  0  0  0  0  0  0  0
    5.4790   -4.2602   -0.4494 H   0  0  0  0  0  0  0  0  0  0  0  0
    3.3558   -5.2128    1.5394 H   0  0  0  0  0  0  0  0  0  0  0  0
    3.5835   -5.7270   -0.2333 H   0  0  0  0  0  0  0  0  0  0  0  0
    5.7074   -1.0205    3.6141 H   0  0  0  0  0  0  0  0  0  0  0  0
    3.2449   -1.7144    6.1807 H   0  0  0  0  0  0  0  0  0  0  0  0
    2.6459    0.4005    5.0234 H   0  0  0  0  0  0  0  0  0  0  0  0
    4.3430    0.6862    4.5640 H   0  0  0  0  0  0  0  0  0  0  0  0
    4.1281    1.9142    6.6502 H   0  0  0  0  0  0  0  0  0  0  0  0
    5.4253   -0.0771    8.1174 H   0  0  0  0  0  0  0  0  0  0  0  0
    6.1862    0.6069    6.6620 H   0  0  0  0  0  0  0  0  0  0  0  0
    6.0047   -3.3052    5.1529 H   0  0  0  0  0  0  0  0  0  0  0  0
    7.3503   -5.2591    8.1063 H   0  0  0  0  0  0  0  0  0  0  0  0
    7.6358   -3.6024    8.6603 H   0  0  0  0  0  0  0  0  0  0  0  0
    8.9701   -4.5615    8.0395 H   0  0  0  0  0  0  0  0  0  0  0  0
    7.6818   -5.8406    5.6133 H   0  0  0  0  0  0  0  0  0  0  0  0
    9.2403   -5.0250    5.5875 H   0  0  0  0  0  0  0  0  0  0  0  0
    7.9863   -4.5514    4.4358 H   0  0  0  0  0  0  0  0  0  0  0  0
    8.2150   -1.7699    7.0270 H   0  0  0  0  0  0  0  0  0  0  0  0
    8.2879   -2.0898    5.2826 H   0  0  0  0  0  0  0  0  0  0  0  0
    9.5362   -2.7274    6.3643 H   0  0  0  0  0  0  0  0  0  0  0  0
    5.0337   -4.8871    7.4793 H   0  0  0  0  0  0  0  0  0  0  0  0
    5.9950   -8.6798    5.5141 H   0  0  0  0  0  0  0  0  0  0  0  0
    5.6758   -7.8740    3.9863 H   0  0  0  0  0  0  0  0  0  0  0  0
    4.9568   -9.4518    4.2962 H   0  0  0  0  0  0  0  0  0  0  0  0
    4.1252   -9.0806    7.1729 H   0  0  0  0  0  0  0  0  0  0  0  0
    3.0366   -9.7308    5.9270 H   0  0  0  0  0  0  0  0  0  0  0  0
    2.5452   -8.3500    6.9383 H   0  0  0  0  0  0  0  0  0  0  0  0
    3.3021   -6.8339    3.5686 H   0  0  0  0  0  0  0  0  0  0  0  0
    2.0718   -6.9828    4.8131 H   0  0  0  0  0  0  0  0  0  0  0  0
    2.5521   -8.4058    3.8563 H   0  0  0  0  0  0  0  0  0  0  0  0
    4.5092    2.2589    8.8646 H   0  0  0  0  0  0  0  0  0  0  0  0
    0.6576   -0.4910    7.7717 H   0  0  0  0  0  0  0  0  0  0  0  0
   -1.5358   -0.7932    8.8113 H   0  0  0  0  0  0  0  0  0  0  0  0
   -0.4506    2.0503   11.8531 H   0  0  0  0  0  0  0  0  0  0  0  0
   -3.7477   -0.8048   11.7919 H   0  0  0  0  0  0  0  0  0  0  0  0
   -2.3401   -1.6129   11.0914 H   0  0  0  0  0  0  0  0  0  0  0  0
   -3.5408   -0.7760   10.0367 H   0  0  0  0  0  0  0  0  0  0  0  0
    2.2777    4.8912   11.9185 H   0  0  0  0  0  0  0  0  0  0  0  0
    3.6603    6.4968   13.1691 H   0  0  0  0  0  0  0  0  0  0  0  0
    6.1370    6.3366   13.0910 H   0  0  0  0  0  0  0  0  0  0  0  0
    7.2151    4.5217   11.7891 H   0  0  0  0  0  0  0  0  0  0  0  0
    5.8588    2.8939   10.5697 H   0  0  0  0  0  0  0  0  0  0  0  0
  1  2  1  0  0  0  0
  1 53  1  0  0  0  0
  1 54  1  0  0  0  0
  1 55  1  0  0  0  0
  2  3  1  0  0  0  0
  2 56  1  0  0  0  0
  2 57  1  0  0  0  0
  3  4  1  0  0  0  0
  4  5  2  0  0  0  0
  4  6  1  0  0  0  0
  6  7  1  0  0  0  0
  6  8  1  0  0  0  0
  6 11  1  0  0  0  0
  7  8  1  0  0  0  0
  7 58  1  0  0  0  0
  7 59  1  0  0  0  0
  8  9  1  0  0  0  0
  8 60  1  0  0  0  0
  9 10  2  0  0  0  0
  9 61  1  0  0  0  0
 10 62  1  0  0  0  0
 10 63  1  0  0  0  0
 11 12  1  0  0  0  0
 11 64  1  0  0  0  0
 12 13  2  0  0  0  0
 12 14  1  0  0  0  0
 14 15  1  0  0  0  0
 14 18  1  0  0  0  0
 14 65  1  0  0  0  0
 15 16  1  0  0  0  0
 15 66  1  0  0  0  0
 15 67  1  0  0  0  0
 16 17  1  0  0  0  0
 16 34  1  0  0  0  0
 16 68  1  6  0  0  0
 17 18  1  0  0  0  0
 17 69  1  0  0  0  0
 17 70  1  0  0  0  0
 18 19  1  0  0  0  0
 19 20  2  0  0  0  0
 19 21  1  0  0  0  0
 21 22  1  0  0  0  0
 21 26  1  0  0  0  0
 21 71  1  0  0  0  0
 22 23  1  0  0  0  0
 22 24  1  0  0  0  0
 22 25  1  0  0  0  0
 23 72  1  0  0  0  0
 23 73  1  0  0  0  0
 23 74  1  0  0  0  0
 24 75  1  0  0  0  0
 24 76  1  0  0  0  0
 24 77  1  0  0  0  0
 25 78  1  0  0  0  0
 25 79  1  0  0  0  0
 25 80  1  0  0  0  0
 26 27  1  0  0  0  0
 26 81  1  0  0  0  0
 27 28  2  0  0  0  0
 27 29  1  0  0  0  0
 29 30  1  0  0  0  0
 30 31  1  0  0  0  0
 30 32  1  0  0  0  0
 30 33  1  0  0  0  0
 31 82  1  0  0  0  0
 31 83  1  0  0  0  0
 31 84  1  0  0  0  0
 32 85  1  0  0  0  0
 32 86  1  0  0  0  0
 32 87  1  0  0  0  0
 33 88  1  0  0  0  0
 33 89  1  0  0  0  0
 33 90  1  0  0  0  0
 34 35  1  0  0  0  0
 35 36  2  0  0  0  0
 35 40  1  0  0  0  0
 36 37  1  0  0  0  0
 36 91  1  0  0  0  0
 37 38  2  0  0  0  0
 37 47  1  0  0  0  0
 38 39  1  0  0  0  0
 39 40  2  0  0  0  0
 39 44  1  0  0  0  0
 40 41  1  0  0  0  0
 41 42  2  0  0  0  0
 41 92  1  0  0  0  0
 42 43  1  0  0  0  0
 42 93  1  0  0  0  0
 43 44  2  0  0  0  0
 43 45  1  0  0  0  0
 44 94  1  0  0  0  0
 45 46  1  0  0  0  0
 46 95  1  0  0  0  0
 46 96  1  0  0  0  0
 46 97  1  0  0  0  0
 47 48  2  0  0  0  0
 47 52  1  0  0  0  0
 48 49  1  0  0  0  0
 48 98  1  0  0  0  0
 49 50  2  0  0  0  0
 49 99  1  0  0  0  0
 50 51  1  0  0  0  0
 50100  1  0  0  0  0
 51 52  2  0  0  0  0
 51101  1  0  0  0  0
 52102  1  0  0  0  0
M  END
