
 OpenBabel10072620013D

 40 41  0  0  0  0  0  0  0  0999 V2000
    2.0268    0.3390   -0.4975 C   0  0  0  0  0  0  0  0  0  0  0  0
    1.1646    0.5663    0.7040 C   0  0  0  0  0  0  0  0  0  0  0  0
    0.9013    1.8303    1.0910 C   0  0  0  0  0  0  0  0  0  0  0  0
    0.2326    2.0720    2.3044 C   0  0  0  0  0  0  0  0  0  0  0  0
   -0.1065    3.1735    2.9346 N   0  0  0  0  0  0  0  0  0  0  0  0
   -0.6627    2.6859    4.0846 C   0  0  0  0  0  0  0  0  0  0  0  0
   -0.6918    1.3569    4.2026 N   0  0  0  0  0  0  0  0  0  0  0  0
   -0.1169    0.9711    3.0536 N   0  0  0  0  0  0  0  0  0  0  0  0
    0.0646   -0.3259    2.7551 N   0  0  0  0  0  0  0  0  0  0  0  0
    0.6546   -0.5136    1.6161 C   0  0  0  0  0  0  0  0  0  0  0  0
    0.8270   -1.8134    1.3041 O   0  0  0  0  0  0  0  0  0  0  0  0
    0.9551   -2.3732   -0.0141 C   0  0  0  0  0  0  0  0  0  0  0  0
    0.5546   -3.8738   -0.0186 C   0  0  0  0  0  0  0  0  0  0  0  0
    1.0193   -4.4690   -1.3634 C   0  0  0  0  0  0  0  0  0  0  0  0
    1.2674   -4.6087    1.1302 C   0  0  0  0  0  0  0  0  0  0  0  0
   -0.9885   -3.9983    0.1193 C   0  0  0  0  0  0  0  0  0  0  0  0
   -1.5240   -5.4325    0.1495 C   0  0  0  0  0  0  0  0  0  0  0  0
   -3.3004   -5.4701   -0.0820 S   0  0  0  0  0  0  0  0  0  0  0  0
   -3.9615   -4.9041    1.0688 O   0  0  0  0  0  0  0  0  0  0  0  0
   -3.6192   -5.0781   -1.4351 O   0  0  0  0  0  0  0  0  0  0  0  0
   -3.6058   -7.1199   -0.0113 N   0  0  0  0  0  0  0  0  0  0  0  0
    2.4657    1.2761   -0.8611 H   0  0  0  0  0  0  0  0  0  0  0  0
    1.4550   -0.0695   -1.3354 H   0  0  0  0  0  0  0  0  0  0  0  0
    2.8706   -0.3148   -0.2565 H   0  0  0  0  0  0  0  0  0  0  0  0
    1.2402    2.6914    0.5233 H   0  0  0  0  0  0  0  0  0  0  0  0
   -1.0577    3.3235    4.8656 H   0  0  0  0  0  0  0  0  0  0  0  0
    2.0067   -2.2975   -0.3026 H   0  0  0  0  0  0  0  0  0  0  0  0
    0.3276   -1.8178   -0.7172 H   0  0  0  0  0  0  0  0  0  0  0  0
    2.0875   -4.2856   -1.5264 H   0  0  0  0  0  0  0  0  0  0  0  0
    0.4738   -4.0211   -2.2017 H   0  0  0  0  0  0  0  0  0  0  0  0
    0.8770   -5.5533   -1.4045 H   0  0  0  0  0  0  0  0  0  0  0  0
    2.3451   -4.4126    1.1072 H   0  0  0  0  0  0  0  0  0  0  0  0
    1.1319   -5.6930    1.0610 H   0  0  0  0  0  0  0  0  0  0  0  0
    0.8924   -4.2895    2.1089 H   0  0  0  0  0  0  0  0  0  0  0  0
   -1.4582   -3.4617   -0.7155 H   0  0  0  0  0  0  0  0  0  0  0  0
   -1.3252   -3.4815    1.0278 H   0  0  0  0  0  0  0  0  0  0  0  0
   -1.3120   -5.9111    1.1099 H   0  0  0  0  0  0  0  0  0  0  0  0
   -1.1105   -6.0406   -0.6589 H   0  0  0  0  0  0  0  0  0  0  0  0
   -4.1801   -7.3360    0.8063 H   0  0  0  0  0  0  0  0  0  0  0  0
   -4.0078   -7.4430   -0.8937 H   0  0  0  0  0  0  0  0  0  0  0  0
  1  2  1  0  0  0  0
  1 22  1  0  0  0  0
  1 23  1  0  0  0  0
  1 24  1  0  0  0  0
  2  3  2  0  0  0  0
  2 10  1  0  0  0  0
  3  4  1  0  0  0  0
  3 25  1  0  0  0  0
  4  5  2  0  0  0  0
  4  8  1  0  0  0  0
  5  6  1  0  0  0  0
  6  7  2  0  0  0  0
  6 26  1  0  0  0  0
  7  8  1  0  0  0  0
  8  9  1  0  0  0  0
  9 10  2  0  0  0  0
 10 11  1  0  0  0  0
 11 12  1  0  0  0  0
 12 13  1  0  0  0  0
 12 27  1  0  0  0  0
 12 28  1  0  0  0  0
 13 14  1  0  0  0  0
 13 15  1  0  0  0  0
 13 16  1  0  0  0  0
 14 29  1  0  0  0  0
 14 30  1  0  0  0  0
 14 31  1  0  0  0  0
 15 32  1  0  0  0  0
 15 33  1  0  0  0  0
 15 34  1  0  0  0  0
 16 17  1  0  0  0  0
 16 35  1  0  0  0  0
 16 36  1  0  0  0  0
 17 18  1  0  0  0  0
 17 37  1  0  0  0  0
 17 38  1  0  0  0  0
 18 19  2  0  0  0  0
 18 20  2  0  0  0  0
 18 21  1  0  0  0  0
 21 39  1  0  0  0  0
 21 40  1  0  0  0  0
M  END
