
 OpenBabel10072620093D

 35 37  0  0  0  0  0  0  0  0999 V2000
    1.3133   -0.5305    0.4879 C   0  0  0  0  0  0  0  0  0  0  0  0
    0.6193   -1.2705   -0.4714 C   0  0  0  0  0  0  0  0  0  0  0  0
   -0.6931   -0.9247   -0.8064 C   0  0  0  0  0  0  0  0  0  0  0  0
   -1.3215    0.1633   -0.1835 C   0  0  0  0  0  0  0  0  0  0  0  0
   -0.6187    0.8848    0.7926 C   0  0  0  0  0  0  0  0  0  0  0  0
    0.6935    0.5460    1.1199 C   0  0  0  0  0  0  0  0  0  0  0  0
   -2.6770    0.4665   -0.4616 N   0  0  0  0  0  0  0  0  0  0  0  0
   -3.7265    0.0068    0.3498 C   0  0  0  0  0  0  0  0  0  0  0  0
   -4.9522    0.4168    0.0037 C   0  0  0  0  0  0  0  0  0  0  0  0
   -4.9186    1.4453   -1.3894 S   0  0  0  0  0  0  0  0  0  0  0  0
   -3.1023    1.2937   -1.5077 C   0  0  0  0  0  0  0  0  0  0  0  0
   -2.6415    1.9657   -2.4888 N   0  0  0  0  0  0  0  0  0  0  0  0
   -1.0864    2.0414   -2.8630 S   0  0  0  0  0  0  0  0  0  0  0  0
   -0.3498    2.7008   -1.8050 O   0  0  0  0  0  0  0  0  0  0  0  0
   -0.6646    0.7679   -3.4096 O   0  0  0  0  0  0  0  0  0  0  0  0
   -1.1041    3.2010   -4.2255 C   0  0  0  0  0  0  0  0  0  0  0  0
   -1.7016    4.4524   -4.0211 C   0  0  0  0  0  0  0  0  0  0  0  0
   -1.7910    5.3485   -5.0842 C   0  0  0  0  0  0  0  0  0  0  0  0
   -1.2849    4.9874   -6.3299 C   0  0  0  0  0  0  0  0  0  0  0  0
   -0.6854    3.7465   -6.5356 C   0  0  0  0  0  0  0  0  0  0  0  0
   -0.5916    2.8407   -5.4774 C   0  0  0  0  0  0  0  0  0  0  0  0
   -1.3825    5.8474   -7.3516 F   0  0  0  0  0  0  0  0  0  0  0  0
   -6.2226    0.0787    0.6700 C   0  0  0  0  0  0  0  0  0  0  0  0
   -7.3065    0.5505    0.3494 O   0  0  0  0  0  0  0  0  0  0  0  0
   -3.3870   -1.0236    1.6764 Cl  0  0  0  0  0  0  0  0  0  0  0  0
    2.3358   -0.7927    0.7520 H   0  0  0  0  0  0  0  0  0  0  0  0
    1.0943   -2.1215   -0.9567 H   0  0  0  0  0  0  0  0  0  0  0  0
   -1.2220   -1.5057   -1.5603 H   0  0  0  0  0  0  0  0  0  0  0  0
   -1.0943    1.7134    1.3086 H   0  0  0  0  0  0  0  0  0  0  0  0
    1.2273    1.1243    1.8686 H   0  0  0  0  0  0  0  0  0  0  0  0
   -2.1038    4.7202   -3.0463 H   0  0  0  0  0  0  0  0  0  0  0  0
   -2.2582    6.3194   -4.9530 H   0  0  0  0  0  0  0  0  0  0  0  0
   -0.3048    3.4937   -7.5209 H   0  0  0  0  0  0  0  0  0  0  0  0
   -0.1385    1.8653   -5.6398 H   0  0  0  0  0  0  0  0  0  0  0  0
   -6.1448   -0.6423    1.5004 H   0  0  0  0  0  0  0  0  0  0  0  0
  1  2  2  0  0  0  0
  1  6  1  0  0  0  0
  1 26  1  0  0  0  0
  2  3  1  0  0  0  0
  2 27  1  0  0  0  0
  3  4  2  0  0  0  0
  3 28  1  0  0  0  0
  4  5  1  0  0  0  0
  4  7  1  0  0  0  0
  5  6  2  0  0  0  0
  5 29  1  0  0  0  0
  6 30  1  0  0  0  0
  7  8  1  0  0  0  0
  7 11  1  0  0  0  0
  8  9  2  0  0  0  0
  8 25  1  0  0  0  0
  9 10  1  0  0  0  0
  9 23  1  0  0  0  0
 10 11  1  0  0  0  0
 11 12  2  0  0  0  0
 12 13  1  0  0  0  0
 13 14  2  0  0  0  0
 13 15  2  0  0  0  0
 13 16  1  0  0  0  0
 16 17  2  0  0  0  0
 16 21  1  0  0  0  0
 17 18  1  0  0  0  0
 17 31  1  0  0  0  0
 18 19  2  0  0  0  0
 18 32  1  0  0  0  0
 19 20  1  0  0  0  0
 19 22  1  0  0  0  0
 20 21  2  0  0  0  0
 20 33  1  0  0  0  0
 21 34  1  0  0  0  0
 23 24  2  0  0  0  0
 23 35  1  0  0  0  0
M  END
