
 OpenBabel10072619483D

 51 55  0  0  0  0  0  0  0  0999 V2000
    0.5239   -1.5296   -0.2101 C   0  0  0  0  0  0  0  0  0  0  0  0
   -1.0028   -1.3179   -0.0769 C   0  0  0  0  0  0  0  0  0  0  0  0
   -1.3087   -0.0857    0.6843 N   0  0  0  0  0  0  0  0  0  0  0  0
   -0.6664    1.1023    0.0656 C   0  0  0  0  0  0  0  0  0  0  0  0
    0.8614    0.9098   -0.0201 C   0  0  0  0  0  0  0  0  0  0  0  0
    1.2321   -0.3362   -0.7456 N   0  0  0  0  0  0  0  0  0  0  0  0
    2.4953   -0.4277   -1.3191 C   0  0  0  0  0  0  0  0  0  0  0  0
    3.0751   -1.4662   -1.9393 C   0  0  0  0  0  0  0  0  0  0  0  0
    4.3963   -1.3578   -2.4220 C   0  0  0  0  0  0  0  0  0  0  0  0
    4.7948   -1.2451   -3.6758 N   0  0  0  0  0  0  0  0  0  0  0  0
    6.1379   -1.0187   -3.6406 N   0  0  0  0  0  0  0  0  0  0  0  0
    6.5878   -1.0143   -2.3980 N   0  0  0  0  0  0  0  0  0  0  0  0
    5.5271   -1.3103   -1.5997 N   0  0  0  0  0  0  0  0  0  0  0  0
    5.7260   -1.5364   -0.2055 C   0  0  0  0  0  0  0  0  0  0  0  0
    6.9678   -1.1998    0.3663 C   0  0  0  0  0  0  0  0  0  0  0  0
    7.2303   -1.4201    1.7305 C   0  0  0  0  0  0  0  0  0  0  0  0
    8.4682   -1.0836    2.3035 C   0  0  0  0  0  0  0  0  0  0  0  0
    8.7184   -1.3165    3.6568 C   0  0  0  0  0  0  0  0  0  0  0  0
    7.7339   -1.8873    4.4576 C   0  0  0  0  0  0  0  0  0  0  0  0
    6.4967   -2.2230    3.9052 C   0  0  0  0  0  0  0  0  0  0  0  0
    6.2319   -1.9966    2.5443 C   0  0  0  0  0  0  0  0  0  0  0  0
    5.0000   -2.3376    1.9679 C   0  0  0  0  0  0  0  0  0  0  0  0
    4.7491   -2.1154    0.6087 C   0  0  0  0  0  0  0  0  0  0  0  0
   -2.6129    0.1217    1.1564 C   0  0  0  0  0  0  0  0  0  0  0  0
   -2.8710    1.1722    2.0566 C   0  0  0  0  0  0  0  0  0  0  0  0
   -4.1511    1.4039    2.5667 C   0  0  0  0  0  0  0  0  0  0  0  0
   -5.2089    0.5782    2.2144 C   0  0  0  0  0  0  0  0  0  0  0  0
   -4.9788   -0.4874    1.3506 C   0  0  0  0  0  0  0  0  0  0  0  0
   -3.6960   -0.7085    0.8298 C   0  0  0  0  0  0  0  0  0  0  0  0
   -4.4192    2.7209    3.6431 Cl  0  0  0  0  0  0  0  0  0  0  0  0
    0.6826   -2.4003   -0.8552 H   0  0  0  0  0  0  0  0  0  0  0  0
    0.9450   -1.7678    0.7749 H   0  0  0  0  0  0  0  0  0  0  0  0
   -1.4088   -2.1987    0.4360 H   0  0  0  0  0  0  0  0  0  0  0  0
   -1.4498   -1.2586   -1.0785 H   0  0  0  0  0  0  0  0  0  0  0  0
   -0.8488    2.0222    0.6307 H   0  0  0  0  0  0  0  0  0  0  0  0
   -1.0773    1.2498   -0.9425 H   0  0  0  0  0  0  0  0  0  0  0  0
    1.2900    0.8735    0.9901 H   0  0  0  0  0  0  0  0  0  0  0  0
    1.2872    1.7815   -0.5323 H   0  0  0  0  0  0  0  0  0  0  0  0
    3.0490    0.5089   -1.2267 H   0  0  0  0  0  0  0  0  0  0  0  0
    2.5362   -2.3844   -2.1369 H   0  0  0  0  0  0  0  0  0  0  0  0
    7.7522   -0.7521   -0.2442 H   0  0  0  0  0  0  0  0  0  0  0  0
    9.2537   -0.6399    1.6950 H   0  0  0  0  0  0  0  0  0  0  0  0
    9.6841   -1.0565    4.0837 H   0  0  0  0  0  0  0  0  0  0  0  0
    7.9298   -2.0755    5.5102 H   0  0  0  0  0  0  0  0  0  0  0  0
    5.7405   -2.6714    4.5464 H   0  0  0  0  0  0  0  0  0  0  0  0
    4.2197   -2.7921    2.5754 H   0  0  0  0  0  0  0  0  0  0  0  0
    3.7873   -2.4439    0.2323 H   0  0  0  0  0  0  0  0  0  0  0  0
   -2.0569    1.8056    2.3957 H   0  0  0  0  0  0  0  0  0  0  0  0
   -6.2038    0.7501    2.6145 H   0  0  0  0  0  0  0  0  0  0  0  0
   -5.7951   -1.1493    1.0754 H   0  0  0  0  0  0  0  0  0  0  0  0
   -3.5756   -1.5470    0.1500 H   0  0  0  0  0  0  0  0  0  0  0  0
  1  2  1  0  0  0  0
  1  6  1  0  0  0  0
  1 31  1  0  0  0  0
  1 32  1  0  0  0  0
  2  3  1  0  0  0  0
  2 33  1  0  0  0  0
  2 34  1  0  0  0  0
  3  4  1  0  0  0  0
  3 24  1  0  0  0  0
  4  5  1  0  0  0  0
  4 35  1  0  0  0  0
  4 36  1  0  0  0  0
  5  6  1  0  0  0  0
  5 37  1  0  0  0  0
  5 38  1  0  0  0  0
  6  7  1  0  0  0  0
  7  8  2  0  0  0  0
  7 39  1  0  0  0  0
  8  9  1  0  0  0  0
  8 40  1  0  0  0  0
  9 10  2  0  0  0  0
  9 13  1  0  0  0  0
 10 11  1  0  0  0  0
 11 12  2  0  0  0  0
 12 13  1  0  0  0  0
 13 14  1  0  0  0  0
 14 15  2  0  0  0  0
 14 23  1  0  0  0  0
 15 16  1  0  0  0  0
 15 41  1  0  0  0  0
 16 17  2  0  0  0  0
 16 21  1  0  0  0  0
 17 18  1  0  0  0  0
 17 42  1  0  0  0  0
 18 19  2  0  0  0  0
 18 43  1  0  0  0  0
 19 20  1  0  0  0  0
 19 44  1  0  0  0  0
 20 21  2  0  0  0  0
 20 45  1  0  0  0  0
 21 22  1  0  0  0  0
 22 23  2  0  0  0  0
 22 46  1  0  0  0  0
 23 47  1  0  0  0  0
 24 25  2  0  0  0  0
 24 29  1  0  0  0  0
 25 26  1  0  0  0  0
 25 48  1  0  0  0  0
 26 27  2  0  0  0  0
 26 30  1  0  0  0  0
 27 28  1  0  0  0  0
 27 49  1  0  0  0  0
 28 29  2  0  0  0  0
 28 50  1  0  0  0  0
 29 51  1  0  0  0  0
M  END
