
 OpenBabel10072619533D

 44 46  0  0  0  0  0  0  0  0999 V2000
    0.8460    0.9685   -0.0405 C   0  0  0  0  0  0  0  0  0  0  0  0
    2.3263    0.8887   -0.3699 C   0  0  0  0  0  0  0  0  0  0  0  0
    3.0591    1.3488    0.7664 O   0  0  0  0  0  0  0  0  0  0  0  0
    4.4212    1.3328    0.6979 C   0  0  0  0  0  0  0  0  0  0  0  0
    5.0651    1.7986    1.8445 C   0  0  0  0  0  0  0  0  0  0  0  0
    6.4662    1.8356    1.9317 C   0  0  0  0  0  0  0  0  0  0  0  0
    7.2597    1.3910    0.8444 C   0  0  0  0  0  0  0  0  0  0  0  0
    6.5886    0.9294   -0.3048 C   0  0  0  0  0  0  0  0  0  0  0  0
    5.1866    0.9032   -0.3777 C   0  0  0  0  0  0  0  0  0  0  0  0
    8.6315    1.4289    0.9521 N   0  3  0  0  0  0  0  0  0  0  0  0
    9.2271    1.9121    2.0815 C   0  0  0  0  0  0  0  0  0  0  0  0
    8.4580    2.3450    3.1619 C   0  0  0  0  0  0  0  0  0  0  0  0
    7.0766    2.3050    3.0889 C   0  0  0  0  0  0  0  0  0  0  0  0
   10.6899    1.9946    2.2003 C   0  0  0  0  0  0  0  0  0  0  0  0
   11.3485    3.1463    1.9948 C   0  0  0  0  0  0  0  0  0  0  0  0
   12.8103    3.3113    2.0997 C   0  0  0  0  0  0  0  0  0  0  0  0
   13.7094    2.2719    1.8277 C   0  0  0  0  0  0  0  0  0  0  0  0
   15.0951    2.4981    1.9042 C   0  0  0  0  0  0  0  0  0  0  0  0
   15.5988    3.7578    2.2417 C   0  0  0  0  0  0  0  0  0  0  0  0
   14.7068    4.7976    2.4963 C   0  0  0  0  0  0  0  0  0  0  0  0
   13.3267    4.5763    2.4212 C   0  0  0  0  0  0  0  0  0  0  0  0
   16.0217    1.3963    1.6123 N   0  3  0  0  0  0  0  0  0  0  0  0
   15.5252    0.3167    1.2553 O   0  0  0  0  0  0  0  0  0  0  0  0
   17.2334    1.6095    1.7368 O   0  5  0  0  0  0  0  0  0  0  0  0
    9.4586    0.9445   -0.1801 C   0  0  0  0  0  0  0  0  0  0  0  0
    0.2395    0.6576   -0.8958 H   0  0  0  0  0  0  0  0  0  0  0  0
    0.5654    1.9883    0.2425 H   0  0  0  0  0  0  0  0  0  0  0  0
    0.6050    0.3260    0.8127 H   0  0  0  0  0  0  0  0  0  0  0  0
    2.5362    1.5258   -1.2362 H   0  0  0  0  0  0  0  0  0  0  0  0
    2.5867   -0.1511   -0.5979 H   0  0  0  0  0  0  0  0  0  0  0  0
    4.4495    2.1357    2.6790 H   0  0  0  0  0  0  0  0  0  0  0  0
    7.1214    0.5745   -1.1822 H   0  0  0  0  0  0  0  0  0  0  0  0
    4.7247    0.5333   -1.2892 H   0  0  0  0  0  0  0  0  0  0  0  0
    8.9334    2.7194    4.0681 H   0  0  0  0  0  0  0  0  0  0  0  0
    6.4841    2.6453    3.9379 H   0  0  0  0  0  0  0  0  0  0  0  0
   11.1941    1.0744    2.4880 H   0  0  0  0  0  0  0  0  0  0  0  0
   10.8039    4.0575    1.7432 H   0  0  0  0  0  0  0  0  0  0  0  0
   13.3445    1.2876    1.5465 H   0  0  0  0  0  0  0  0  0  0  0  0
   16.6694    3.9460    2.3028 H   0  0  0  0  0  0  0  0  0  0  0  0
   15.0854    5.7854    2.7540 H   0  0  0  0  0  0  0  0  0  0  0  0
   12.6607    5.4142    2.6239 H   0  0  0  0  0  0  0  0  0  0  0  0
    9.1769   -0.0925   -0.3846 H   0  0  0  0  0  0  0  0  0  0  0  0
   10.5244    0.9625    0.0430 H   0  0  0  0  0  0  0  0  0  0  0  0
    9.2669    1.5941   -1.0387 H   0  0  0  0  0  0  0  0  0  0  0  0
  1  2  1  0  0  0  0
  1 26  1  0  0  0  0
  1 27  1  0  0  0  0
  1 28  1  0  0  0  0
  2  3  1  0  0  0  0
  2 29  1  0  0  0  0
  2 30  1  0  0  0  0
  3  4  1  0  0  0  0
  4  5  2  0  0  0  0
  4  9  1  0  0  0  0
  5  6  1  0  0  0  0
  5 31  1  0  0  0  0
  6  7  2  0  0  0  0
  6 13  1  0  0  0  0
  7  8  1  0  0  0  0
  7 10  1  0  0  0  0
  8  9  2  0  0  0  0
  8 32  1  0  0  0  0
  9 33  1  0  0  0  0
 10 11  2  0  0  0  0
 10 25  1  0  0  0  0
 11 12  1  0  0  0  0
 11 14  1  0  0  0  0
 12 13  2  0  0  0  0
 12 34  1  0  0  0  0
 13 35  1  0  0  0  0
 14 15  2  0  0  0  0
 14 36  1  0  0  0  0
 15 16  1  0  0  0  0
 15 37  1  0  0  0  0
 16 17  2  0  0  0  0
 16 21  1  0  0  0  0
 17 18  1  0  0  0  0
 17 38  1  0  0  0  0
 18 19  2  0  0  0  0
 18 22  1  0  0  0  0
 19 20  1  0  0  0  0
 19 39  1  0  0  0  0
 20 21  2  0  0  0  0
 20 40  1  0  0  0  0
 21 41  1  0  0  0  0
 22 23  2  0  0  0  0
 22 24  1  0  0  0  0
 25 42  1  0  0  0  0
 25 43  1  0  0  0  0
 25 44  1  0  0  0  0
M  CHG  3  10   1  22   1  24  -1
M  END
