
 OpenBabel10072619593D

 37 39  0  0  0  0  0  0  0  0999 V2000
   -0.0618   -2.9249   -0.7476 C   0  0  0  0  0  0  0  0  0  0  0  0
   -0.4818   -1.5477   -0.3297 C   0  0  0  0  0  0  0  0  0  0  0  0
   -1.7700   -1.1774   -0.3542 C   0  0  0  0  0  0  0  0  0  0  0  0
   -2.2397    0.1612    0.0310 C   0  0  0  0  0  0  0  0  0  0  0  0
   -3.4339    0.4362    0.0059 O   0  0  0  0  0  0  0  0  0  0  0  0
   -1.2776    1.0752    0.4132 O   0  0  0  0  0  0  0  0  0  0  0  0
    0.0862    0.7282    0.4311 C   0  0  0  0  0  0  0  0  0  0  0  0
    0.5190   -0.5579    0.0914 C   0  0  0  0  0  0  0  0  0  0  0  0
    1.8932   -0.8257    0.1655 C   0  0  0  0  0  0  0  0  0  0  0  0
    2.7977    0.1757    0.5425 C   0  0  0  0  0  0  0  0  0  0  0  0
    2.3281    1.4564    0.8348 C   0  0  0  0  0  0  0  0  0  0  0  0
    0.9681    1.7375    0.8137 C   0  0  0  0  0  0  0  0  0  0  0  0
    3.2721    2.4145    1.2335 O   0  0  0  0  0  0  0  0  0  0  0  0
    3.2509    3.6315    0.5677 C   0  0  0  0  0  0  0  0  0  0  0  0
    2.5459    3.9657   -0.3705 O   0  0  0  0  0  0  0  0  0  0  0  0
    4.2816    4.4868    1.1944 C   0  0  0  0  0  0  0  0  0  0  0  0
    4.3290    5.7943    0.9005 C   0  0  0  0  0  0  0  0  0  0  0  0
    5.3670    6.6728    1.4550 C   0  0  0  0  0  0  0  0  0  0  0  0
    6.3672    7.1193    0.5785 C   0  0  0  0  0  0  0  0  0  0  0  0
    7.3924    7.9547    1.0300 C   0  0  0  0  0  0  0  0  0  0  0  0
    7.4366    8.3457    2.3664 C   0  0  0  0  0  0  0  0  0  0  0  0
    6.4456    7.9156    3.2492 C   0  0  0  0  0  0  0  0  0  0  0  0
    5.4097    7.0899    2.7960 C   0  0  0  0  0  0  0  0  0  0  0  0
    4.1793    6.6479    3.9280 Cl  0  0  0  0  0  0  0  0  0  0  0  0
   -0.9123   -3.5198   -1.0976 H   0  0  0  0  0  0  0  0  0  0  0  0
    0.3909   -3.4682    0.0880 H   0  0  0  0  0  0  0  0  0  0  0  0
    0.6574   -2.8821   -1.5715 H   0  0  0  0  0  0  0  0  0  0  0  0
   -2.5566   -1.8546   -0.6654 H   0  0  0  0  0  0  0  0  0  0  0  0
    2.2862   -1.8109   -0.0704 H   0  0  0  0  0  0  0  0  0  0  0  0
    3.8589   -0.0501    0.6031 H   0  0  0  0  0  0  0  0  0  0  0  0
    0.5926    2.7222    1.0754 H   0  0  0  0  0  0  0  0  0  0  0  0
    4.9773    4.0112    1.8756 H   0  0  0  0  0  0  0  0  0  0  0  0
    3.6223    6.2532    0.2102 H   0  0  0  0  0  0  0  0  0  0  0  0
    6.3526    6.8188   -0.4679 H   0  0  0  0  0  0  0  0  0  0  0  0
    8.1535    8.3037    0.3353 H   0  0  0  0  0  0  0  0  0  0  0  0
    8.2336    8.9976    2.7171 H   0  0  0  0  0  0  0  0  0  0  0  0
    6.4813    8.2362    4.2881 H   0  0  0  0  0  0  0  0  0  0  0  0
  1  2  1  0  0  0  0
  1 25  1  0  0  0  0
  1 26  1  0  0  0  0
  1 27  1  0  0  0  0
  2  3  2  0  0  0  0
  2  8  1  0  0  0  0
  3  4  1  0  0  0  0
  3 28  1  0  0  0  0
  4  5  2  0  0  0  0
  4  6  1  0  0  0  0
  6  7  1  0  0  0  0
  7  8  2  0  0  0  0
  7 12  1  0  0  0  0
  8  9  1  0  0  0  0
  9 10  2  0  0  0  0
  9 29  1  0  0  0  0
 10 11  1  0  0  0  0
 10 30  1  0  0  0  0
 11 12  2  0  0  0  0
 11 13  1  0  0  0  0
 12 31  1  0  0  0  0
 13 14  1  0  0  0  0
 14 15  2  0  0  0  0
 14 16  1  0  0  0  0
 16 17  2  0  0  0  0
 16 32  1  0  0  0  0
 17 18  1  0  0  0  0
 17 33  1  0  0  0  0
 18 19  2  0  0  0  0
 18 23  1  0  0  0  0
 19 20  1  0  0  0  0
 19 34  1  0  0  0  0
 20 21  2  0  0  0  0
 20 35  1  0  0  0  0
 21 22  1  0  0  0  0
 21 36  1  0  0  0  0
 22 23  2  0  0  0  0
 22 37  1  0  0  0  0
 23 24  1  0  0  0  0
M  END
