
 OpenBabel10072620233D

 29 29  0  0  0  0  0  0  0  0999 V2000
    2.0379    1.1656   -0.0531 C   0  0  0  0  0  0  0  0  0  0  0  0
    0.6411    0.6019   -0.0590 C   0  0  0  0  0  0  0  0  0  0  0  0
    0.3814   -0.7888    0.0503 C   0  0  0  0  0  0  0  0  0  0  0  0
   -0.9621   -1.2603    0.0275 C   0  0  0  0  0  0  0  0  0  0  0  0
   -1.9997   -0.3325   -0.0976 C   0  0  0  0  0  0  0  0  0  0  0  0
   -1.7393    1.0349   -0.1820 C   0  0  0  0  0  0  0  0  0  0  0  0
   -0.4307    1.4981   -0.1622 C   0  0  0  0  0  0  0  0  0  0  0  0
   -1.1862   -2.6607    0.0764 N   0  0  0  0  0  0  0  0  0  0  0  0
   -2.2958   -3.4362    0.3202 C   0  0  0  0  0  0  0  0  0  0  0  0
   -3.8232   -3.0022    0.8394 S   0  0  0  0  0  0  0  0  0  0  0  0
   -2.0986   -4.8000    0.1376 N   0  0  0  0  0  0  0  0  0  0  0  0
   -0.9462   -5.4788   -0.2248 C   0  0  0  0  0  0  0  0  0  0  0  0
    0.1421   -4.9350   -0.3996 O   0  0  0  0  0  0  0  0  0  0  0  0
   -1.1230   -6.9669   -0.3627 C   0  0  0  0  0  0  0  0  0  0  0  0
    1.5309   -1.7641    0.1810 C   0  0  0  0  0  0  0  0  0  0  0  0
    2.6403    0.7051   -0.8427 H   0  0  0  0  0  0  0  0  0  0  0  0
    2.5103    0.9999    0.9204 H   0  0  0  0  0  0  0  0  0  0  0  0
    2.0375    2.2452   -0.2393 H   0  0  0  0  0  0  0  0  0  0  0  0
   -3.0359   -0.6330   -0.1778 H   0  0  0  0  0  0  0  0  0  0  0  0
   -2.5637    1.7364   -0.2808 H   0  0  0  0  0  0  0  0  0  0  0  0
   -0.2510    2.5683   -0.2385 H   0  0  0  0  0  0  0  0  0  0  0  0
   -0.3484   -3.2234   -0.0646 H   0  0  0  0  0  0  0  0  0  0  0  0
   -2.9331   -5.3434    0.3154 H   0  0  0  0  0  0  0  0  0  0  0  0
   -2.1636   -7.2710   -0.2240 H   0  0  0  0  0  0  0  0  0  0  0  0
   -0.5091   -7.4680    0.3903 H   0  0  0  0  0  0  0  0  0  0  0  0
   -0.8043   -7.2725   -1.3629 H   0  0  0  0  0  0  0  0  0  0  0  0
    2.4847   -1.2778    0.3993 H   0  0  0  0  0  0  0  0  0  0  0  0
    1.6504   -2.3272   -0.7501 H   0  0  0  0  0  0  0  0  0  0  0  0
    1.3539   -2.4558    1.0119 H   0  0  0  0  0  0  0  0  0  0  0  0
  1  2  1  0  0  0  0
  1 16  1  0  0  0  0
  1 17  1  0  0  0  0
  1 18  1  0  0  0  0
  2  3  2  0  0  0  0
  2  7  1  0  0  0  0
  3  4  1  0  0  0  0
  3 15  1  0  0  0  0
  4  5  2  0  0  0  0
  4  8  1  0  0  0  0
  5  6  1  0  0  0  0
  5 19  1  0  0  0  0
  6  7  2  0  0  0  0
  6 20  1  0  0  0  0
  7 21  1  0  0  0  0
  8  9  1  0  0  0  0
  8 22  1  0  0  0  0
  9 10  2  0  0  0  0
  9 11  1  0  0  0  0
 11 12  1  0  0  0  0
 11 23  1  0  0  0  0
 12 13  2  0  0  0  0
 12 14  1  0  0  0  0
 14 24  1  0  0  0  0
 14 25  1  0  0  0  0
 14 26  1  0  0  0  0
 15 27  1  0  0  0  0
 15 28  1  0  0  0  0
 15 29  1  0  0  0  0
M  END
