
 OpenBabel10072620033D

 31 33  0  0  0  0  0  0  0  0999 V2000
   -2.5943   -0.6805   -1.3797 C   0  0  0  0  0  0  0  0  0  0  0  0
   -2.6305    0.6681   -1.0503 C   0  0  0  0  0  0  0  0  0  0  0  0
   -1.5424    1.2490   -0.3968 C   0  0  0  0  0  0  0  0  0  0  0  0
   -0.4138    0.5079   -0.0718 C   0  0  0  0  0  0  0  0  0  0  0  0
   -0.3813   -0.8758   -0.4014 C   0  0  0  0  0  0  0  0  0  0  0  0
   -1.4715   -1.4409   -1.0503 C   0  0  0  0  0  0  0  0  0  0  0  0
    0.6817   -1.6502   -0.1038 N   0  0  0  0  0  0  0  0  0  0  0  0
    1.7130   -1.0244    0.4947 C   0  0  0  0  0  0  0  0  0  0  0  0
    1.6891    0.3329    0.8108 C   0  0  0  0  0  0  0  0  0  0  0  0
    0.6185    1.1140    0.5463 N   0  0  0  0  0  0  0  0  0  0  0  0
    2.9479    1.1286    1.6655 Cl  0  0  0  0  0  0  0  0  0  0  0  0
    2.8055   -1.9074    0.7230 N   0  0  0  0  0  0  0  0  0  0  0  0
    3.9919   -1.7984   -0.4832 S   0  0  0  0  0  0  0  0  0  0  0  0
    3.7685   -2.8771   -1.4185 O   0  0  0  0  0  0  0  0  0  0  0  0
    4.0991   -0.4272   -0.9324 O   0  0  0  0  0  0  0  0  0  0  0  0
    5.4506   -2.1741    0.4275 C   0  0  0  0  0  0  0  0  0  0  0  0
    5.5692   -3.4257    1.0224 C   0  0  0  0  0  0  0  0  0  0  0  0
    6.7210   -3.7594    1.7316 C   0  0  0  0  0  0  0  0  0  0  0  0
    7.7577   -2.8314    1.8385 C   0  0  0  0  0  0  0  0  0  0  0  0
    7.6268   -1.5811    1.2386 C   0  0  0  0  0  0  0  0  0  0  0  0
    6.4811   -1.2369    0.5314 C   0  0  0  0  0  0  0  0  0  0  0  0
    8.6250   -0.6956    1.3435 F   0  0  0  0  0  0  0  0  0  0  0  0
    4.5794   -4.3260    0.9440 F   0  0  0  0  0  0  0  0  0  0  0  0
   -3.4342   -1.1431   -1.8929 H   0  0  0  0  0  0  0  0  0  0  0  0
   -3.5006    1.2708   -1.3004 H   0  0  0  0  0  0  0  0  0  0  0  0
   -1.5730    2.3054   -0.1399 H   0  0  0  0  0  0  0  0  0  0  0  0
   -1.4452   -2.4966   -1.3114 H   0  0  0  0  0  0  0  0  0  0  0  0
    2.4210   -2.8537    0.6522 H   0  0  0  0  0  0  0  0  0  0  0  0
    6.8055   -4.7376    2.1951 H   0  0  0  0  0  0  0  0  0  0  0  0
    8.6667   -3.0739    2.3815 H   0  0  0  0  0  0  0  0  0  0  0  0
    6.4094   -0.2551    0.0720 H   0  0  0  0  0  0  0  0  0  0  0  0
  1  2  2  0  0  0  0
  1  6  1  0  0  0  0
  1 24  1  0  0  0  0
  2  3  1  0  0  0  0
  2 25  1  0  0  0  0
  3  4  2  0  0  0  0
  3 26  1  0  0  0  0
  4  5  1  0  0  0  0
  4 10  1  0  0  0  0
  5  6  2  0  0  0  0
  5  7  1  0  0  0  0
  6 27  1  0  0  0  0
  7  8  2  0  0  0  0
  8  9  1  0  0  0  0
  8 12  1  0  0  0  0
  9 10  2  0  0  0  0
  9 11  1  0  0  0  0
 12 13  1  0  0  0  0
 12 28  1  0  0  0  0
 13 14  2  0  0  0  0
 13 15  2  0  0  0  0
 13 16  1  0  0  0  0
 16 17  2  0  0  0  0
 16 21  1  0  0  0  0
 17 18  1  0  0  0  0
 17 23  1  0  0  0  0
 18 19  2  0  0  0  0
 18 29  1  0  0  0  0
 19 20  1  0  0  0  0
 19 30  1  0  0  0  0
 20 21  2  0  0  0  0
 20 22  1  0  0  0  0
 21 31  1  0  0  0  0
M  END
