
 OpenBabel10072620233D

 37 39  0  0  0  0  0  0  0  0999 V2000
   -2.1175   -0.5567    0.7766 C   0  0  0  0  0  0  0  0  0  0  0  0
   -1.1180   -1.5929    0.6761 O   0  0  0  0  0  0  0  0  0  0  0  0
    0.0104   -0.8466    0.5461 C   0  0  0  0  0  0  0  0  0  0  0  0
   -0.2452    0.5033    0.5649 C   0  0  0  0  0  0  0  0  0  0  0  0
   -1.5711    0.7756    0.7060 O   0  0  0  0  0  0  0  0  0  0  0  0
    0.7616    1.4412    0.4440 C   0  0  0  0  0  0  0  0  0  0  0  0
    2.0757    0.9825    0.3006 C   0  0  0  0  0  0  0  0  0  0  0  0
    2.3284   -0.4079    0.2740 C   0  0  0  0  0  0  0  0  0  0  0  0
    1.2883   -1.3361    0.4018 C   0  0  0  0  0  0  0  0  0  0  0  0
    3.1865    1.8381    0.1520 N   0  0  0  0  0  0  0  0  0  0  0  0
    3.2126    3.2074    0.3020 C   0  0  0  0  0  0  0  0  0  0  0  0
    2.3030    3.9192    0.7039 O   0  0  0  0  0  0  0  0  0  0  0  0
    4.4522    3.7103   -0.0524 N   0  0  0  0  0  0  0  0  0  0  0  0
    4.6863    5.1457   -0.0201 C   0  0  0  0  0  0  0  0  0  0  0  0
    4.8744    5.6810    1.4017 C   0  0  0  0  0  0  0  0  0  0  0  0
    5.1335    7.1672    1.4059 C   0  0  0  0  0  0  0  0  0  0  0  0
    4.0617    8.0697    1.4355 C   0  0  0  0  0  0  0  0  0  0  0  0
    4.2955    9.4454    1.4189 C   0  0  0  0  0  0  0  0  0  0  0  0
    5.6011    9.9307    1.3676 C   0  0  0  0  0  0  0  0  0  0  0  0
    6.6737    9.0412    1.3344 C   0  0  0  0  0  0  0  0  0  0  0  0
    6.4420    7.6649    1.3511 C   0  0  0  0  0  0  0  0  0  0  0  0
   -2.6455   -0.6697    1.7305 H   0  0  0  0  0  0  0  0  0  0  0  0
   -2.8369   -0.6843   -0.0405 H   0  0  0  0  0  0  0  0  0  0  0  0
    0.5056    2.4936    0.4551 H   0  0  0  0  0  0  0  0  0  0  0  0
    3.3422   -0.7829    0.1562 H   0  0  0  0  0  0  0  0  0  0  0  0
    1.4785   -2.4031    0.3856 H   0  0  0  0  0  0  0  0  0  0  0  0
    4.0909    1.3995    0.0693 H   0  0  0  0  0  0  0  0  0  0  0  0
    4.9074    3.2083   -0.8000 H   0  0  0  0  0  0  0  0  0  0  0  0
    3.8489    5.6461   -0.5208 H   0  0  0  0  0  0  0  0  0  0  0  0
    5.5863    5.3328   -0.6171 H   0  0  0  0  0  0  0  0  0  0  0  0
    5.7085    5.1609    1.8901 H   0  0  0  0  0  0  0  0  0  0  0  0
    3.9955    5.4653    2.0210 H   0  0  0  0  0  0  0  0  0  0  0  0
    3.0372    7.7030    1.4729 H   0  0  0  0  0  0  0  0  0  0  0  0
    3.4581   10.1378    1.4460 H   0  0  0  0  0  0  0  0  0  0  0  0
    5.7823   11.0021    1.3551 H   0  0  0  0  0  0  0  0  0  0  0  0
    7.6917    9.4200    1.2962 H   0  0  0  0  0  0  0  0  0  0  0  0
    7.2891    6.9837    1.3231 H   0  0  0  0  0  0  0  0  0  0  0  0
  1  2  1  0  0  0  0
  1  5  1  0  0  0  0
  1 22  1  0  0  0  0
  1 23  1  0  0  0  0
  2  3  1  0  0  0  0
  3  4  2  0  0  0  0
  3  9  1  0  0  0  0
  4  5  1  0  0  0  0
  4  6  1  0  0  0  0
  6  7  2  0  0  0  0
  6 24  1  0  0  0  0
  7  8  1  0  0  0  0
  7 10  1  0  0  0  0
  8  9  2  0  0  0  0
  8 25  1  0  0  0  0
  9 26  1  0  0  0  0
 10 11  1  0  0  0  0
 10 27  1  0  0  0  0
 11 12  2  0  0  0  0
 11 13  1  0  0  0  0
 13 14  1  0  0  0  0
 13 28  1  0  0  0  0
 14 15  1  0  0  0  0
 14 29  1  0  0  0  0
 14 30  1  0  0  0  0
 15 16  1  0  0  0  0
 15 31  1  0  0  0  0
 15 32  1  0  0  0  0
 16 17  2  0  0  0  0
 16 21  1  0  0  0  0
 17 18  1  0  0  0  0
 17 33  1  0  0  0  0
 18 19  2  0  0  0  0
 18 34  1  0  0  0  0
 19 20  1  0  0  0  0
 19 35  1  0  0  0  0
 20 21  2  0  0  0  0
 20 36  1  0  0  0  0
 21 37  1  0  0  0  0
M  END
