
 OpenBabel10072619243D

250260  0  0  1  0  0  0  0  0999 V2000
   -3.2679   -6.4870    1.7746 C   0  0  0  0  0  0  0  0  0  0  0  0
   -2.1647   -5.6707    1.7326 C   0  0  0  0  0  0  0  0  0  0  0  0
   -2.3606   -4.3284    1.4220 C   0  0  0  0  0  0  0  0  0  0  0  0
   -3.2513   -3.6649    0.6624 C   0  0  0  0  0  0  0  0  0  0  0  0
   -4.3869   -4.5572    0.8251 C   0  0  0  0  0  0  0  0  0  0  0  0
   -4.4221   -5.9217    1.3461 C   0  0  0  0  0  0  0  0  0  0  0  0
   -3.0939   -1.7837    0.0370 C   0  0  0  0  0  0  0  0  0  0  0  0
   -4.1201   -0.2752   -0.1033 O   0  0  0  0  0  0  0  0  0  0  0  0
   -5.5889   -0.2363   -0.4512 C   0  0  2  0  0  0  0  0  0  0  0  0
   -6.0648   -0.4435    0.9228 C   0  0  2  0  0  0  0  0  0  0  0  0
   -6.8066   -0.7024    2.1558 C   0  0  3  0  0  0  0  0  0  0  0  0
   -7.8339   -1.4311    0.4844 C   0  0  2  0  0  0  0  0  0  0  0  0
   -7.5028   -0.7217   -1.1363 O   0  0  0  0  0  0  0  0  0  0  0  0
   -6.2365   -0.7210   -1.7362 C   0  0  3  0  0  0  0  0  0  0  0  0
   -5.4632   -0.4276   -3.0066 O   0  0  0  0  0  0  0  0  0  0  0  0
   -4.0900   -1.2665   -3.2234 C   0  0  3  0  0  0  0  0  0  0  0  0
   -2.5237   -1.0136   -2.0718 C   0  0  2  0  0  0  0  0  0  0  0  0
   -3.9329   -1.2700   -1.5830 O   0  0  0  0  0  0  0  0  0  0  0  0
   -4.6969   -2.4057   -0.6903 C   0  0  1  0  0  0  0  0  0  0  0  0
   -4.9453   -3.2561   -1.7948 C   0  0  1  0  0  0  0  0  0  0  0  0
   -4.4172   -2.7680   -3.0932 C   0  0  1  0  0  0  0  0  0  0  0  0
   -5.1475   -3.1548   -4.1789 O   0  0  0  0  0  0  0  0  0  0  0  0
   -6.0667   -4.0304   -1.5786 O   0  0  0  0  0  0  0  0  0  0  0  0
   -4.5904   -2.4286    0.8711 O   0  0  0  0  0  0  0  0  0  0  0  0
   -3.0597   -1.9736    2.0073 C   0  0  3  0  0  0  0  0  0  0  0  0
   -1.9692   -0.4305    1.5564 C   0  0  2  0  0  0  0  0  0  0  0  0
   -2.7237    0.5985    1.2448 O   0  0  0  0  0  0  0  0  0  0  0  0
   -3.4175    0.5122    2.4419 C   0  0  3  0  0  0  0  0  0  0  0  0
   -4.2202   -1.2840    2.3295 C   0  0  3  0  0  0  0  0  0  0  0  0
   -3.9225   -2.4459    3.0144 C   0  0  1  0  0  0  0  0  0  0  0  0
   -4.3262   -3.7697    2.8765 O   0  0  0  0  0  0  0  0  0  0  0  0
   -3.6275   -4.6288    3.9769 S   0  0  0  0  0  0  0  0  0  0  0  0
   -2.4452   -5.3928    3.8023 O   0  0  0  0  0  0  0  0  0  0  0  0
   -3.4040   -3.5743    4.8368 O   0  0  0  0  0  0  0  0  0  0  0  0
   -4.6910   -5.6217    4.5117 O   0  0  0  0  0  0  0  0  0  0  0  0
   -5.6538   -2.2002    2.5507 O   0  0  0  0  0  0  0  0  0  0  0  0
   -6.3277   -2.9437    3.8693 S   0  0  0  0  0  0  0  0  0  0  0  0
   -5.4744   -3.2927    4.9537 O   0  0  0  0  0  0  0  0  0  0  0  0
   -7.5475   -2.2781    4.2053 O   0  0  0  0  0  0  0  0  0  0  0  0
   -6.5361   -4.4050    3.1924 O   0  0  0  0  0  0  0  0  0  0  0  0
   -3.2656    1.8167    3.5636 O   0  0  0  0  0  0  0  0  0  0  0  0
   -2.8255    3.1452    3.2128 C   0  0  3  0  0  0  0  0  0  0  0  0
   -1.6781    2.7104    2.4601 C   0  0  2  0  0  0  0  0  0  0  0  0
   -2.2822    2.5760    1.1905 O   0  0  0  0  0  0  0  0  0  0  0  0
   -3.0440    3.5148    0.4138 C   0  0  3  0  0  0  0  0  0  0  0  0
   -4.6433    3.9677    1.1547 C   0  0  3  0  0  0  0  0  0  0  0  0
   -3.8599    4.2488    2.4523 C   0  0  1  0  0  0  0  0  0  0  0  0
   -4.8987    4.8450    3.1930 O   0  0  0  0  0  0  0  0  0  0  0  0
   -5.7111    6.0937    2.3885 S   0  0  0  0  0  0  0  0  0  0  0  0
   -4.6995    7.0853    2.1249 O   0  0  0  0  0  0  0  0  0  0  0  0
   -6.5838    5.7272    1.2929 O   0  0  0  0  0  0  0  0  0  0  0  0
   -6.6966    6.5623    3.5343 O   0  0  0  0  0  0  0  0  0  0  0  0
   -6.4309    3.6240    1.5484 O   0  0  0  0  0  0  0  0  0  0  0  0
   -8.0144    2.4537    0.9215 S   0  0  0  0  0  0  0  0  0  0  0  0
   -7.8599    1.3708   -0.0762 O   0  0  0  0  0  0  0  0  0  0  0  0
   -8.7077    1.9048    2.0592 O   0  0  0  0  0  0  0  0  0  0  0  0
   -8.6714    3.5362    0.0345 O   0  0  0  0  0  0  0  0  0  0  0  0
   -2.3733    4.2016   -0.6587 O   0  0  0  0  0  0  0  0  0  0  0  0
   -1.9852    3.4135   -1.8460 C   0  0  3  0  0  0  0  0  0  0  0  0
   -1.1251    2.4173   -1.1795 C   0  0  2  0  0  0  0  0  0  0  0  0
   -2.0552    1.2493   -1.1594 O   0  0  0  0  0  0  0  0  0  0  0  0
   -3.0344    0.7579   -2.5652 C   0  0  3  0  0  0  0  0  0  0  0  0
   -3.7790    1.8038   -3.1508 C   0  0  3  0  0  0  0  0  0  0  0  0
   -2.9690    3.0188   -3.1453 C   0  0  1  0  0  0  0  0  0  0  0  0
   -3.9428    3.9658   -3.6221 O   0  0  0  0  0  0  0  0  0  0  0  0
   -5.0448    3.4390   -4.8008 S   0  0  0  0  0  0  0  0  0  0  0  0
   -4.2229    2.8606   -5.8352 O   0  0  0  0  0  0  0  0  0  0  0  0
   -6.2057    2.7254   -4.3120 O   0  0  0  0  0  0  0  0  0  0  0  0
   -5.5800    4.8397   -5.2758 O   0  0  0  0  0  0  0  0  0  0  0  0
   -4.9758    2.1231   -2.5784 O   0  0  0  0  0  0  0  0  0  0  0  0
   -5.1236    2.8723   -1.2721 S   0  0  0  0  0  0  0  0  0  0  0  0
   -4.3936    4.0881   -1.1456 O   0  0  0  0  0  0  0  0  0  0  0  0
   -6.5234    2.9635   -1.0881 O   0  0  0  0  0  0  0  0  0  0  0  0
   -4.4635    1.6883   -0.5012 O   0  0  0  0  0  0  0  0  0  0  0  0
   -2.2563   -0.6671   -3.7539 O   0  0  0  0  0  0  0  0  0  0  0  0
   -0.9310   -1.8529   -2.9809 C   0  0  3  0  0  0  0  0  0  0  0  0
    0.1030   -1.4114   -1.7278 C   0  0  2  0  0  0  0  0  0  0  0  0
   -0.6624   -1.7260   -0.6283 O   0  0  0  0  0  0  0  0  0  0  0  0
   -0.8992   -3.0949   -0.0760 C   0  0  3  0  0  0  0  0  0  0  0  0
   -1.8923   -3.6703   -1.2215 C   0  0  1  0  0  0  0  0  0  0  0  0
   -1.3271   -3.3671   -2.5407 C   0  0  1  0  0  0  0  0  0  0  0  0
   -2.1122   -4.0144   -3.4772 O   0  0  0  0  0  0  0  0  0  0  0  0
   -1.9282   -3.8203   -5.0333 S   0  0  0  0  0  0  0  0  0  0  0  0
   -2.9689   -4.6043   -5.6289 O   0  0  0  0  0  0  0  0  0  0  0  0
   -1.6137   -2.4558   -5.3989 O   0  0  0  0  0  0  0  0  0  0  0  0
   -0.5602   -4.6281   -5.0395 O   0  0  0  0  0  0  0  0  0  0  0  0
   -2.9799   -4.5327   -1.4604 O   0  0  0  0  0  0  0  0  0  0  0  0
   -3.1926   -5.7559   -0.9394 C   0  0  0  0  0  0  0  0  0  0  0  0
   -2.5908   -7.0721   -0.9676 C   0  0  0  0  0  0  0  0  0  0  0  0
   -1.3618   -7.2721   -0.3029 C   0  0  0  0  0  0  0  0  0  0  0  0
   -1.1725   -8.4676    0.3326 C   0  0  0  0  0  0  0  0  0  0  0  0
   -2.1506   -9.4475    0.1969 C   0  0  0  0  0  0  0  0  0  0  0  0
   -3.3949   -9.1957   -0.3799 C   0  0  0  0  0  0  0  0  0  0  0  0
   -3.6107   -8.0158   -1.0160 C   0  0  0  0  0  0  0  0  0  0  0  0
   -0.2158   -3.6868    1.1627 O   0  0  0  0  0  0  0  0  0  0  0  0
   -0.2064   -3.3264    2.8328 C   0  0  3  0  0  0  0  0  0  0  0  0
    0.3333   -2.0217    2.8630 C   0  0  2  0  0  0  0  0  0  0  0  0
   -1.2450   -0.9973    3.3241 O   0  0  0  0  0  0  0  0  0  0  0  0
   -3.1585   -0.7430    3.9656 C   0  0  3  0  0  0  0  0  0  0  0  0
   -5.2402   -0.5884    3.6044 O   0  0  0  0  0  0  0  0  0  0  0  0
   -2.3709   -1.8537    4.6613 C   0  0  1  0  0  0  0  0  0  0  0  0
   -1.1272   -3.0090    4.4069 C   0  0  1  0  0  0  0  0  0  0  0  0
   -1.3927   -4.1817    5.1955 O   0  0  0  0  0  0  0  0  0  0  0  0
   -2.3468   -4.5450    6.5662 S   0  0  0  0  0  0  0  0  0  0  0  0
   -1.4274   -4.5004    7.6531 O   0  0  0  0  0  0  0  0  0  0  0  0
   -3.6145   -3.8585    6.7867 O   0  0  0  0  0  0  0  0  0  0  0  0
   -2.8066   -6.0529    6.2358 O   0  0  0  0  0  0  0  0  0  0  0  0
   -2.0284   -0.8895    5.4876 O   0  0  0  0  0  0  0  0  0  0  0  0
   -2.0488   -1.5238    6.6523 C   0  0  0  0  0  0  0  0  0  0  0  0
   -3.2610   -1.0939    7.2978 C   0  0  0  0  0  0  0  0  0  0  0  0
   -4.3107   -0.3827    6.7006 C   0  0  0  0  0  0  0  0  0  0  0  0
   -5.3178    0.0962    7.4721 C   0  0  0  0  0  0  0  0  0  0  0  0
   -5.3088   -0.2706    8.8034 C   0  0  0  0  0  0  0  0  0  0  0  0
   -4.3748   -1.1692    9.3237 C   0  0  0  0  0  0  0  0  0  0  0  0
   -3.3098   -1.5438    8.5802 C   0  0  0  0  0  0  0  0  0  0  0  0
    1.6874   -2.2520    1.3956 C   0  0  0  0  0  0  0  0  0  0  0  0
    2.8530   -3.1574    1.5707 O   0  0  0  0  0  0  0  0  0  0  0  0
    3.9396   -3.4395    0.3126 S   0  0  0  0  0  0  0  0  0  0  0  0
    3.2546   -3.9107   -0.8792 O   0  0  0  0  0  0  0  0  0  0  0  0
    4.8865   -2.3568    0.1950 O   0  0  0  0  0  0  0  0  0  0  0  0
    4.7176   -4.7410    0.8511 O   0  0  0  0  0  0  0  0  0  0  0  0
    1.1315   -0.0777   -1.8835 C   0  0  0  0  0  0  0  0  0  0  0  0
    1.9156    0.7495   -1.0475 O   0  0  0  0  0  0  0  0  0  0  0  0
    2.7508    2.1456   -1.4132 S   0  0  0  0  0  0  0  0  0  0  0  0
    2.0023    3.0912   -2.1680 O   0  0  0  0  0  0  0  0  0  0  0  0
    3.1980    2.5671   -0.1057 O   0  0  0  0  0  0  0  0  0  0  0  0
    4.0974    1.6442   -2.1197 O   0  0  0  0  0  0  0  0  0  0  0  0
   -0.1573    2.9812   -0.0147 C   0  0  0  0  0  0  0  0  0  0  0  0
    0.4042    4.2599    0.3258 O   0  0  0  0  0  0  0  0  0  0  0  0
    0.7745    4.7338    1.9347 S   0  0  0  0  0  0  0  0  0  0  0  0
   -0.3732    4.8286    2.8295 O   0  0  0  0  0  0  0  0  0  0  0  0
    1.9943    4.1814    2.4627 O   0  0  0  0  0  0  0  0  0  0  0  0
    1.0119    6.2844    1.7673 O   0  0  0  0  0  0  0  0  0  0  0  0
   -0.8099    1.6104    3.1904 C   0  0  0  0  0  0  0  0  0  0  0  0
    0.4387    1.6793    3.7850 O   0  0  0  0  0  0  0  0  0  0  0  0
    0.5333    1.6728    5.3519 S   0  0  0  0  0  0  0  0  0  0  0  0
   -0.5876    0.9216    5.8199 O   0  0  0  0  0  0  0  0  0  0  0  0
    1.8698    1.3381    5.7468 O   0  0  0  0  0  0  0  0  0  0  0  0
    0.2504    3.2534    5.4732 O   0  0  0  0  0  0  0  0  0  0  0  0
   -0.4639   -0.5497    1.1058 C   0  0  0  0  0  0  0  0  0  0  0  0
    0.6271    0.1749    0.6585 O   0  0  0  0  0  0  0  0  0  0  0  0
    1.8286    0.6774    1.7572 S   0  0  0  0  0  0  0  0  0  0  0  0
    1.5379    2.0549    1.8971 O   0  0  0  0  0  0  0  0  0  0  0  0
    2.0215   -0.1908    2.8825 O   0  0  0  0  0  0  0  0  0  0  0  0
    3.1169    0.5191    0.8837 O   0  0  0  0  0  0  0  0  0  0  0  0
   -1.1914    0.4211   -2.9416 C   0  0  0  0  0  0  0  0  0  0  0  0
   -0.2451    0.1235   -4.0085 O   0  0  0  0  0  0  0  0  0  0  0  0
    0.1464    1.4209   -4.9494 S   0  0  0  0  0  0  0  0  0  0  0  0
   -0.9711    1.7568   -5.7880 O   0  0  0  0  0  0  0  0  0  0  0  0
    0.6991    2.4220   -4.0800 O   0  0  0  0  0  0  0  0  0  0  0  0
    1.3028    0.6934   -5.7606 O   0  0  0  0  0  0  0  0  0  0  0  0
   -9.3618   -1.3148   -0.4637 C   0  0  0  0  0  0  0  0  0  0  0  0
  -10.6466   -1.9144   -0.3423 O   0  0  0  0  0  0  0  0  0  0  0  0
  -11.5671   -1.7909   -1.7416 S   0  0  0  0  0  0  0  0  0  0  0  0
  -11.8850   -0.3980   -1.9709 O   0  0  0  0  0  0  0  0  0  0  0  0
  -10.9988   -2.6028   -2.7978 O   0  0  0  0  0  0  0  0  0  0  0  0
  -12.9572   -2.4896   -1.3180 O   0  0  0  0  0  0  0  0  0  0  0  0
   -5.8938    0.4152    1.9013 O   0  0  0  0  0  0  0  0  0  0  0  0
   -5.5056    1.7941    1.8373 S   0  0  0  0  0  0  0  0  0  0  0  0
   -4.1836    1.9463    1.5028 O   0  0  0  0  0  0  0  0  0  0  0  0
   -6.1020    1.9446    0.6266 O   0  0  0  0  0  0  0  0  0  0  0  0
   -6.0308    2.3026    3.2460 O   0  0  0  0  0  0  0  0  0  0  0  0
   -3.1316   -7.3830    2.3432 H   0  0  0  0  0  0  0  0  0  0  0  0
   -1.1462   -5.8352    2.1424 H   0  0  0  0  0  0  0  0  0  0  0  0
   -1.7569   -3.8925    2.1414 H   0  0  0  0  0  0  0  0  0  0  0  0
   -5.3732   -4.1686    0.6729 H   0  0  0  0  0  0  0  0  0  0  0  0
   -5.3564   -6.4237    1.3573 H   0  0  0  0  0  0  0  0  0  0  0  0
   -2.1926   -1.4330    0.1994 H   0  0  0  0  0  0  0  0  0  0  0  0
   -3.5367   -1.1374    0.7040 H   0  0  0  0  0  0  0  0  0  0  0  0
   -5.9087    0.6973   -0.8136 H   0  0  0  0  0  0  0  0  0  0  0  0
   -6.0260   -1.4816    0.9744 H   0  0  0  0  0  0  0  0  0  0  0  0
   -7.5773    0.1225    2.1493 H   0  0  0  0  0  0  0  0  0  0  0  0
   -7.6525   -2.5289    0.2899 H   0  0  0  0  0  0  0  0  0  0  0  0
   -6.5897   -1.6029   -2.2333 H   0  0  0  0  0  0  0  0  0  0  0  0
   -3.8821   -1.1529   -4.2965 H   0  0  0  0  0  0  0  0  0  0  0  0
   -2.2897   -0.5379   -1.1534 H   0  0  0  0  0  0  0  0  0  0  0  0
   -5.7080   -2.1292   -0.4636 H   0  0  0  0  0  0  0  0  0  0  0  0
   -5.4219   -2.4312   -2.0614 H   0  0  0  0  0  0  0  0  0  0  0  0
   -3.4770   -3.1040   -2.9414 H   0  0  0  0  0  0  0  0  0  0  0  0
   -5.8075   -2.4313   -4.2157 H   0  0  0  0  0  0  0  0  0  0  0  0
   -5.5959   -4.5182   -0.9140 H   0  0  0  0  0  0  0  0  0  0  0  0
   -2.2018   -2.5215    2.0910 H   0  0  0  0  0  0  0  0  0  0  0  0
   -1.7282    0.1045    2.3749 H   0  0  0  0  0  0  0  0  0  0  0  0
   -4.2581    0.9092    2.9563 H   0  0  0  0  0  0  0  0  0  0  0  0
   -4.6290   -0.4349    2.1537 H   0  0  0  0  0  0  0  0  0  0  0  0
   -4.2003   -2.1574    3.9914 H   0  0  0  0  0  0  0  0  0  0  0  0
   -5.1758   -5.9406    3.7481 H   0  0  0  0  0  0  0  0  0  0  0  0
   -5.7075   -4.4824    2.6691 H   0  0  0  0  0  0  0  0  0  0  0  0
   -2.4280    3.5995    4.1113 H   0  0  0  0  0  0  0  0  0  0  0  0
   -0.8876    3.2931    2.2073 H   0  0  0  0  0  0  0  0  0  0  0  0
   -3.3191    2.7969   -0.1962 H   0  0  0  0  0  0  0  0  0  0  0  0
   -4.9330    4.7639    0.5576 H   0  0  0  0  0  0  0  0  0  0  0  0
   -3.1084    4.9770    2.1184 H   0  0  0  0  0  0  0  0  0  0  0  0
   -6.1811    6.5848    4.3499 H   0  0  0  0  0  0  0  0  0  0  0  0
   -7.8084    3.6502   -0.4814 H   0  0  0  0  0  0  0  0  0  0  0  0
   -1.1660    3.8315   -2.3827 H   0  0  0  0  0  0  0  0  0  0  0  0
   -0.2041    2.0911   -1.6219 H   0  0  0  0  0  0  0  0  0  0  0  0
   -3.8617    0.4170   -2.0328 H   0  0  0  0  0  0  0  0  0  0  0  0
   -4.1588    1.3113   -4.0251 H   0  0  0  0  0  0  0  0  0  0  0  0
   -2.2657    2.8359   -3.9412 H   0  0  0  0  0  0  0  0  0  0  0  0
   -4.7716    5.3710   -5.2950 H   0  0  0  0  0  0  0  0  0  0  0  0
   -3.6362    1.1740   -0.2411 H   0  0  0  0  0  0  0  0  0  0  0  0
   -0.2589   -2.0268   -3.7805 H   0  0  0  0  0  0  0  0  0  0  0  0
    0.8229   -2.1426   -1.4573 H   0  0  0  0  0  0  0  0  0  0  0  0
   -1.4710   -2.6737    0.6535 H   0  0  0  0  0  0  0  0  0  0  0  0
   -2.5646   -2.8740   -1.2827 H   0  0  0  0  0  0  0  0  0  0  0  0
   -0.5017   -4.0070   -2.2690 H   0  0  0  0  0  0  0  0  0  0  0  0
   -0.7674   -5.3803   -4.4445 H   0  0  0  0  0  0  0  0  0  0  0  0
   -4.2631   -5.8629   -0.7110 H   0  0  0  0  0  0  0  0  0  0  0  0
   -2.6920   -5.5015   -0.0762 H   0  0  0  0  0  0  0  0  0  0  0  0
   -0.7237   -6.4349    0.0062 H   0  0  0  0  0  0  0  0  0  0  0  0
   -0.3174   -8.5966    0.9856 H   0  0  0  0  0  0  0  0  0  0  0  0
   -1.9462  -10.4418    0.5486 H   0  0  0  0  0  0  0  0  0  0  0  0
   -4.2268   -9.8773   -0.2888 H   0  0  0  0  0  0  0  0  0  0  0  0
   -4.6289   -7.7215   -1.2982 H   0  0  0  0  0  0  0  0  0  0  0  0
    0.5322   -4.0787    3.0477 H   0  0  0  0  0  0  0  0  0  0  0  0
    1.0433   -1.8299    3.6658 H   0  0  0  0  0  0  0  0  0  0  0  0
   -2.9037    0.2406    4.3351 H   0  0  0  0  0  0  0  0  0  0  0  0
   -2.3314   -2.2110    3.7031 H   0  0  0  0  0  0  0  0  0  0  0  0
   -0.3104   -2.5903    4.9688 H   0  0  0  0  0  0  0  0  0  0  0  0
   -2.5530   -6.3091    5.3287 H   0  0  0  0  0  0  0  0  0  0  0  0
   -1.0462   -1.3955    6.9766 H   0  0  0  0  0  0  0  0  0  0  0  0
   -2.1574   -2.5294    6.4173 H   0  0  0  0  0  0  0  0  0  0  0  0
   -4.3574   -0.1077    5.6663 H   0  0  0  0  0  0  0  0  0  0  0  0
   -6.0562    0.7459    7.0201 H   0  0  0  0  0  0  0  0  0  0  0  0
   -6.0420    0.1509    9.4630 H   0  0  0  0  0  0  0  0  0  0  0  0
   -4.4307   -1.5695   10.3174 H   0  0  0  0  0  0  0  0  0  0  0  0
   -2.5108   -2.1753    8.9444 H   0  0  0  0  0  0  0  0  0  0  0  0
    1.2873   -2.7051    0.4755 H   0  0  0  0  0  0  0  0  0  0  0  0
    2.1139   -1.3931    0.8925 H   0  0  0  0  0  0  0  0  0  0  0  0
    4.0686   -5.4656    0.9436 H   0  0  0  0  0  0  0  0  0  0  0  0
    1.8436   -0.4815   -2.5590 H   0  0  0  0  0  0  0  0  0  0  0  0
    0.5906    0.7021   -2.2744 H   0  0  0  0  0  0  0  0  0  0  0  0
    4.0289    1.3762   -3.0466 H   0  0  0  0  0  0  0  0  0  0  0  0
   -0.7404    2.9032    0.7732 H   0  0  0  0  0  0  0  0  0  0  0  0
    0.4582    2.1647    0.2182 H   0  0  0  0  0  0  0  0  0  0  0  0
    0.0969    6.6261    1.7048 H   0  0  0  0  0  0  0  0  0  0  0  0
   -1.3734    1.0026    3.8526 H   0  0  0  0  0  0  0  0  0  0  0  0
   -0.4379    1.0361    2.4079 H   0  0  0  0  0  0  0  0  0  0  0  0
    0.7749    3.6574    4.7376 H   0  0  0  0  0  0  0  0  0  0  0  0
    0.0683   -0.5459    1.9928 H   0  0  0  0  0  0  0  0  0  0  0  0
   -0.3048   -1.5734    1.0620 H   0  0  0  0  0  0  0  0  0  0  0  0
    2.8622    1.2276    0.2872 H   0  0  0  0  0  0  0  0  0  0  0  0
   -1.7852    1.0719   -3.6969 H   0  0  0  0  0  0  0  0  0  0  0  0
   -0.9817    1.3968   -2.6636 H   0  0  0  0  0  0  0  0  0  0  0  0
    0.9262   -0.1888   -5.9688 H   0  0  0  0  0  0  0  0  0  0  0  0
   -9.4950   -0.3341   -0.9825 H   0  0  0  0  0  0  0  0  0  0  0  0
   -9.0328   -1.9387   -1.3408 H   0  0  0  0  0  0  0  0  0  0  0  0
  -13.3722   -1.9468   -0.6217 H   0  0  0  0  0  0  0  0  0  0  0  0
   -5.2445    2.5515    3.7727 H   0  0  0  0  0  0  0  0  0  0  0  0
  1  2  2  0  0  0  0
  1  6  1  0  0  0  0
  1163  1  0  0  0  0
  2  3  1  0  0  0  0
  2164  1  0  0  0  0
  3  4  2  0  0  0  0
  3165  1  0  0  0  0
  4  5  1  0  0  0  0
  4  7  1  0  0  0  0
  5  6  2  0  0  0  0
  5166  1  0  0  0  0
  6167  1  0  0  0  0
  7  8  1  0  0  0  0
  7168  1  0  0  0  0
  7169  1  0  0  0  0
  8  9  1  0  0  0  0
  9 10  1  0  0  0  0
  9 14  1  0  0  0  0
  9170  1  6  0  0  0
 10 11  1  0  0  0  0
 10158  1  0  0  0  0
 10171  1  1  0  0  0
 11 12  1  0  0  0  0
 11100  1  0  0  0  0
 11172  1  0  0  0  0
 12 13  1  0  0  0  0
 12152  1  0  0  0  0
 12173  1  6  0  0  0
 13 14  1  0  0  0  0
 14 15  1  0  0  0  0
 14174  1  0  0  0  0
 15 16  1  0  0  0  0
 16 17  1  0  0  0  0
 16 21  1  0  0  0  0
 16175  1  0  0  0  0
 17 18  1  0  0  0  0
 17146  1  0  0  0  0
 17176  1  1  0  0  0
 18 19  1  0  0  0  0
 19 20  1  0  0  0  0
 19 24  1  0  0  0  0
 19177  1  6  0  0  0
 20 21  1  0  0  0  0
 20 23  1  0  0  0  0
 20178  1  6  0  0  0
 21 22  1  0  0  0  0
 21179  1  6  0  0  0
 22180  1  0  0  0  0
 23181  1  0  0  0  0
 24 25  1  0  0  0  0
 25 26  1  0  0  0  0
 25 30  1  0  0  0  0
 25182  1  0  0  0  0
 26 27  1  0  0  0  0
 26140  1  0  0  0  0
 26183  1  1  0  0  0
 27 28  1  0  0  0  0
 28 29  1  0  0  0  0
 28 41  1  0  0  0  0
 28184  1  0  0  0  0
 29 30  1  0  0  0  0
 29 36  1  0  0  0  0
 29185  1  0  0  0  0
 30 31  1  0  0  0  0
 30186  1  1  0  0  0
 31 32  1  0  0  0  0
 32 33  2  0  0  0  0
 32 34  2  0  0  0  0
 32 35  1  0  0  0  0
 35187  1  0  0  0  0
 36 37  1  0  0  0  0
 37 38  2  0  0  0  0
 37 39  2  0  0  0  0
 37 40  1  0  0  0  0
 40188  1  0  0  0  0
 41 42  1  0  0  0  0
 42 43  1  0  0  0  0
 42 47  1  0  0  0  0
 42189  1  0  0  0  0
 43 44  1  0  0  0  0
 43134  1  0  0  0  0
 43190  1  6  0  0  0
 44 45  1  0  0  0  0
 45 46  1  0  0  0  0
 45 58  1  0  0  0  0
 45191  1  0  0  0  0
 46 47  1  0  0  0  0
 46 53  1  0  0  0  0
 46192  1  0  0  0  0
 47 48  1  0  0  0  0
 47193  1  6  0  0  0
 48 49  1  0  0  0  0
 49 50  2  0  0  0  0
 49 51  2  0  0  0  0
 49 52  1  0  0  0  0
 52194  1  0  0  0  0
 53 54  1  0  0  0  0
 54 55  2  0  0  0  0
 54 56  2  0  0  0  0
 54 57  1  0  0  0  0
 57195  1  0  0  0  0
 58 59  1  0  0  0  0
 59 60  1  0  0  0  0
 59 64  1  0  0  0  0
 59196  1  0  0  0  0
 60 61  1  0  0  0  0
 60128  1  0  0  0  0
 60197  1  6  0  0  0
 61 62  1  0  0  0  0
 62 63  1  0  0  0  0
 62 75  1  0  0  0  0
 62198  1  0  0  0  0
 63 64  1  0  0  0  0
 63 70  1  0  0  0  0
 63199  1  0  0  0  0
 64 65  1  0  0  0  0
 64200  1  6  0  0  0
 65 66  1  0  0  0  0
 66 67  2  0  0  0  0
 66 68  2  0  0  0  0
 66 69  1  0  0  0  0
 69201  1  0  0  0  0
 70 71  1  0  0  0  0
 71 72  2  0  0  0  0
 71 73  2  0  0  0  0
 71 74  1  0  0  0  0
 74202  1  0  0  0  0
 75 76  1  0  0  0  0
 76 77  1  0  0  0  0
 76 81  1  0  0  0  0
 76203  1  0  0  0  0
 77 78  1  0  0  0  0
 77122  1  0  0  0  0
 77204  1  6  0  0  0
 78 79  1  0  0  0  0
 79 80  1  0  0  0  0
 79 95  1  0  0  0  0
 79205  1  0  0  0  0
 80 81  1  0  0  0  0
 80 87  1  0  0  0  0
 80206  1  1  0  0  0
 81 82  1  0  0  0  0
 81207  1  6  0  0  0
 82 83  1  0  0  0  0
 83 84  2  0  0  0  0
 83 85  2  0  0  0  0
 83 86  1  0  0  0  0
 86208  1  0  0  0  0
 87 88  1  0  0  0  0
 88 89  1  0  0  0  0
 88209  1  0  0  0  0
 88210  1  0  0  0  0
 89 90  2  0  0  0  0
 89 94  1  0  0  0  0
 90 91  1  0  0  0  0
 90211  1  0  0  0  0
 91 92  2  0  0  0  0
 91212  1  0  0  0  0
 92 93  1  0  0  0  0
 92213  1  0  0  0  0
 93 94  2  0  0  0  0
 93214  1  0  0  0  0
 94215  1  0  0  0  0
 95 96  1  0  0  0  0
 96 97  1  0  0  0  0
 96102  1  0  0  0  0
 96216  1  0  0  0  0
 97 98  1  0  0  0  0
 97116  1  0  0  0  0
 97217  1  1  0  0  0
 98 99  1  0  0  0  0
 99100  1  0  0  0  0
 99101  1  0  0  0  0
 99218  1  0  0  0  0
101102  1  0  0  0  0
101108  1  0  0  0  0
101219  1  1  0  0  0
102103  1  0  0  0  0
102220  1  1  0  0  0
103104  1  0  0  0  0
104105  2  0  0  0  0
104106  2  0  0  0  0
104107  1  0  0  0  0
107221  1  0  0  0  0
108109  1  0  0  0  0
109110  1  0  0  0  0
109222  1  0  0  0  0
109223  1  0  0  0  0
110111  2  0  0  0  0
110115  1  0  0  0  0
111112  1  0  0  0  0
111224  1  0  0  0  0
112113  2  0  0  0  0
112225  1  0  0  0  0
113114  1  0  0  0  0
113226  1  0  0  0  0
114115  2  0  0  0  0
114227  1  0  0  0  0
115228  1  0  0  0  0
116117  1  0  0  0  0
116229  1  0  0  0  0
116230  1  0  0  0  0
117118  1  0  0  0  0
118119  2  0  0  0  0
118120  2  0  0  0  0
118121  1  0  0  0  0
121231  1  0  0  0  0
122123  1  0  0  0  0
122232  1  0  0  0  0
122233  1  0  0  0  0
123124  1  0  0  0  0
124125  2  0  0  0  0
124126  2  0  0  0  0
124127  1  0  0  0  0
127234  1  0  0  0  0
128129  1  0  0  0  0
128235  1  0  0  0  0
128236  1  0  0  0  0
129130  1  0  0  0  0
130131  2  0  0  0  0
130132  2  0  0  0  0
130133  1  0  0  0  0
133237  1  0  0  0  0
134135  1  0  0  0  0
134238  1  0  0  0  0
134239  1  0  0  0  0
135136  1  0  0  0  0
136137  2  0  0  0  0
136138  2  0  0  0  0
136139  1  0  0  0  0
139240  1  0  0  0  0
140141  1  0  0  0  0
140241  1  0  0  0  0
140242  1  0  0  0  0
141142  1  0  0  0  0
142143  2  0  0  0  0
142144  2  0  0  0  0
142145  1  0  0  0  0
145243  1  0  0  0  0
146147  1  0  0  0  0
146244  1  0  0  0  0
146245  1  0  0  0  0
147148  1  0  0  0  0
148149  2  0  0  0  0
148150  2  0  0  0  0
148151  1  0  0  0  0
151246  1  0  0  0  0
152153  1  0  0  0  0
152247  1  0  0  0  0
152248  1  0  0  0  0
153154  1  0  0  0  0
154155  2  0  0  0  0
154156  2  0  0  0  0
154157  1  0  0  0  0
157249  1  0  0  0  0
158159  1  0  0  0  0
159160  2  0  0  0  0
159161  2  0  0  0  0
159162  1  0  0  0  0
162250  1  0  0  0  0
M  END
