
 OpenBabel10072619483D

 28 29  0  0  0  0  0  0  0  0999 V2000
    1.1634   -0.2962    0.6346 C   0  0  0  0  0  0  0  0  0  0  0  0
    0.3149   -1.3749    0.3717 C   0  0  0  0  0  0  0  0  0  0  0  0
   -1.0037   -1.1562   -0.0566 C   0  0  0  0  0  0  0  0  0  0  0  0
   -1.4582    0.1639   -0.2178 C   0  0  0  0  0  0  0  0  0  0  0  0
   -0.6053    1.2405    0.0552 C   0  0  0  0  0  0  0  0  0  0  0  0
    0.7081    1.0115    0.4694 C   0  0  0  0  0  0  0  0  0  0  0  0
   -1.1628    2.9011   -0.2454 S   0  0  0  0  0  0  0  0  0  0  0  0
   -0.0305    3.7332   -0.5838 O   0  0  0  0  0  0  0  0  0  0  0  0
   -2.2900    2.8091   -1.1527 O   0  0  0  0  0  0  0  0  0  0  0  0
   -1.8239    3.3687    1.2105 N   0  0  0  0  0  0  0  0  0  0  0  0
   -0.9675    3.9441    2.1619 C   0  0  0  0  0  0  0  0  0  0  0  0
    0.3027    3.6441    2.2920 N   0  0  0  0  0  0  0  0  0  0  0  0
    0.9030    4.3412    3.3200 N   0  0  0  0  0  0  0  0  0  0  0  0
    0.0562    5.1398    3.9449 C   0  0  0  0  0  0  0  0  0  0  0  0
   -1.5488    5.0591    3.3167 S   0  0  0  0  0  0  0  0  0  0  0  0
    0.3886    6.0503    5.0789 C   0  0  0  0  0  0  0  0  0  0  0  0
    1.2625    5.4901    5.9566 F   0  0  0  0  0  0  0  0  0  0  0  0
    0.9486    7.2129    4.6506 F   0  0  0  0  0  0  0  0  0  0  0  0
   -0.7046    6.4014    5.8109 F   0  0  0  0  0  0  0  0  0  0  0  0
   -1.9315   -2.3069   -0.3630 C   0  0  0  0  0  0  0  0  0  0  0  0
   -1.3832   -3.5312   -0.1305 F   0  0  0  0  0  0  0  0  0  0  0  0
   -3.0710   -2.2577    0.3812 F   0  0  0  0  0  0  0  0  0  0  0  0
   -2.3366   -2.3164   -1.6623 F   0  0  0  0  0  0  0  0  0  0  0  0
    2.1880   -0.4767    0.9531 H   0  0  0  0  0  0  0  0  0  0  0  0
    0.6945   -2.3891    0.4930 H   0  0  0  0  0  0  0  0  0  0  0  0
   -2.4714    0.3416   -0.5776 H   0  0  0  0  0  0  0  0  0  0  0  0
    1.3851    1.8424    0.6640 H   0  0  0  0  0  0  0  0  0  0  0  0
   -2.7849    3.6949    1.1580 H   0  0  0  0  0  0  0  0  0  0  0  0
  1  2  2  0  0  0  0
  1  6  1  0  0  0  0
  1 24  1  0  0  0  0
  2  3  1  0  0  0  0
  2 25  1  0  0  0  0
  3  4  2  0  0  0  0
  3 20  1  0  0  0  0
  4  5  1  0  0  0  0
  4 26  1  0  0  0  0
  5  6  2  0  0  0  0
  5  7  1  0  0  0  0
  6 27  1  0  0  0  0
  7  8  2  0  0  0  0
  7  9  2  0  0  0  0
  7 10  1  0  0  0  0
 10 11  1  0  0  0  0
 10 28  1  0  0  0  0
 11 12  2  0  0  0  0
 11 15  1  0  0  0  0
 12 13  1  0  0  0  0
 13 14  2  0  0  0  0
 14 15  1  0  0  0  0
 14 16  1  0  0  0  0
 16 17  1  0  0  0  0
 16 18  1  0  0  0  0
 16 19  1  0  0  0  0
 20 21  1  0  0  0  0
 20 22  1  0  0  0  0
 20 23  1  0  0  0  0
M  END
