
 OpenBabel10072616343D

 47 49  0  0  0  0  0  0  0  0999 V2000
    3.3785   -1.3719   -0.6227 C   0  0  0  0  0  0  0  0  0  0  0  0
    4.2454   -2.2746    0.2340 C   0  0  0  0  0  0  0  0  0  0  0  0
    4.3771   -1.7340    1.5574 O   0  0  0  0  0  0  0  0  0  0  0  0
    5.2958   -0.7283    1.6947 C   0  0  0  0  0  0  0  0  0  0  0  0
    6.0237   -0.3616    0.7774 O   0  0  0  0  0  0  0  0  0  0  0  0
    5.3216   -0.1206    3.0371 C   0  0  0  0  0  0  0  0  0  0  0  0
    4.5344   -0.5311    4.1127 C   0  0  0  0  0  0  0  0  0  0  0  0
    4.8115    0.4617    5.4886 S   0  0  0  0  0  0  0  0  0  0  0  0
    6.0109    1.3819    4.7145 C   0  0  0  0  0  0  0  0  0  0  0  0
    6.1980    0.9898    3.4022 C   0  0  0  0  0  0  0  0  0  0  0  0
    7.1872    1.6177    2.4660 C   0  0  0  0  0  0  0  0  0  0  0  0
    6.7252    2.4572    5.4680 C   0  0  0  0  0  0  0  0  0  0  0  0
    3.6843   -1.6045    4.1384 N   0  0  0  0  0  0  0  0  0  0  0  0
    2.8507   -2.0390    5.1494 C   0  0  0  0  0  0  0  0  0  0  0  0
    1.8129   -1.4565    5.7849 C   0  0  0  0  0  0  0  0  0  0  0  0
    1.1767   -2.1787    6.8396 C   0  0  0  0  0  0  0  0  0  0  0  0
    0.6714   -2.7784    7.6961 N   0  0  0  0  0  0  0  0  0  0  0  0
    1.2716   -0.2074    5.3366 C   0  0  0  0  0  0  0  0  0  0  0  0
    1.2087    0.2181    4.0850 N   0  0  0  0  0  0  0  0  0  0  0  0
    0.5711    1.4378    3.9869 C   0  0  0  0  0  0  0  0  0  0  0  0
    0.1568    1.9718    5.1892 C   0  0  0  0  0  0  0  0  0  0  0  0
    0.5766    0.9167    6.4694 S   0  0  0  0  0  0  0  0  0  0  0  0
    0.3909    2.0948    2.6984 C   0  0  0  0  0  0  0  0  0  0  0  0
   -0.0622    1.4031    1.5574 C   0  0  0  0  0  0  0  0  0  0  0  0
   -0.1995    2.0657    0.3321 C   0  0  0  0  0  0  0  0  0  0  0  0
    0.1125    3.4181    0.2381 C   0  0  0  0  0  0  0  0  0  0  0  0
    0.5565    4.1226    1.3553 C   0  0  0  0  0  0  0  0  0  0  0  0
    0.6995    3.4628    2.5794 C   0  0  0  0  0  0  0  0  0  0  0  0
   -0.0633    4.2265   -1.2701 Cl  0  0  0  0  0  0  0  0  0  0  0  0
   -0.5351   -0.2637    1.5853 Cl  0  0  0  0  0  0  0  0  0  0  0  0
    3.1657   -1.8454   -1.5843 H   0  0  0  0  0  0  0  0  0  0  0  0
    3.8800   -0.4182   -0.8141 H   0  0  0  0  0  0  0  0  0  0  0  0
    2.4349   -1.1453   -0.1165 H   0  0  0  0  0  0  0  0  0  0  0  0
    5.2263   -2.4375   -0.2271 H   0  0  0  0  0  0  0  0  0  0  0  0
    3.7649   -3.2534    0.3340 H   0  0  0  0  0  0  0  0  0  0  0  0
    7.7187    2.4534    2.9293 H   0  0  0  0  0  0  0  0  0  0  0  0
    6.6743    2.0074    1.5811 H   0  0  0  0  0  0  0  0  0  0  0  0
    7.9370    0.8815    2.1566 H   0  0  0  0  0  0  0  0  0  0  0  0
    6.3451    2.5790    6.4870 H   0  0  0  0  0  0  0  0  0  0  0  0
    6.6189    3.4194    4.9556 H   0  0  0  0  0  0  0  0  0  0  0  0
    7.7928    2.2195    5.5328 H   0  0  0  0  0  0  0  0  0  0  0  0
    3.7361   -2.2484    3.3468 H   0  0  0  0  0  0  0  0  0  0  0  0
    3.1372   -3.0543    5.4279 H   0  0  0  0  0  0  0  0  0  0  0  0
   -0.3604    2.9011    5.3814 H   0  0  0  0  0  0  0  0  0  0  0  0
   -0.5568    1.5283   -0.5438 H   0  0  0  0  0  0  0  0  0  0  0  0
    0.8003    5.1798    1.2801 H   0  0  0  0  0  0  0  0  0  0  0  0
    1.0712    4.0227    3.4370 H   0  0  0  0  0  0  0  0  0  0  0  0
  1  2  1  0  0  0  0
  1 31  1  0  0  0  0
  1 32  1  0  0  0  0
  1 33  1  0  0  0  0
  2  3  1  0  0  0  0
  2 34  1  0  0  0  0
  2 35  1  0  0  0  0
  3  4  1  0  0  0  0
  4  5  2  0  0  0  0
  4  6  1  0  0  0  0
  6  7  2  0  0  0  0
  6 10  1  0  0  0  0
  7  8  1  0  0  0  0
  7 13  1  0  0  0  0
  8  9  1  0  0  0  0
  9 10  2  0  0  0  0
  9 12  1  0  0  0  0
 10 11  1  0  0  0  0
 11 36  1  0  0  0  0
 11 37  1  0  0  0  0
 11 38  1  0  0  0  0
 12 39  1  0  0  0  0
 12 40  1  0  0  0  0
 12 41  1  0  0  0  0
 13 14  1  0  0  0  0
 13 42  1  0  0  0  0
 14 15  2  0  0  0  0
 14 43  1  0  0  0  0
 15 16  1  0  0  0  0
 15 18  1  0  0  0  0
 16 17  3  0  0  0  0
 18 19  2  0  0  0  0
 18 22  1  0  0  0  0
 19 20  1  0  0  0  0
 20 21  2  0  0  0  0
 20 23  1  0  0  0  0
 21 22  1  0  0  0  0
 21 44  1  0  0  0  0
 23 24  2  0  0  0  0
 23 28  1  0  0  0  0
 24 25  1  0  0  0  0
 24 30  1  0  0  0  0
 25 26  2  0  0  0  0
 25 45  1  0  0  0  0
 26 27  1  0  0  0  0
 26 29  1  0  0  0  0
 27 28  2  0  0  0  0
 27 46  1  0  0  0  0
 28 47  1  0  0  0  0
M  END
