
 OpenBabel10072619543D

 46 48  0  0  0  0  0  0  0  0999 V2000
    1.3770    0.1337    0.1049 C   0  0  0  0  0  0  0  0  0  0  0  0
    0.4068   -1.0325   -0.2525 C   0  0  0  0  0  0  0  0  0  0  0  0
   -0.7868   -0.3165   -0.8213 C   0  0  0  0  0  0  0  0  0  0  0  0
   -0.9501    0.8030    0.1244 N   0  0  0  0  0  0  0  0  0  0  0  0
    0.4320    1.2593    0.5334 C   0  0  0  0  0  0  0  0  0  0  0  0
   -2.2247    1.3718    0.5856 C   0  0  0  0  0  0  0  0  0  0  0  0
   -3.3725    0.8716    0.1432 C   0  0  0  0  0  0  0  0  0  0  0  0
   -4.5675    1.2750    0.6881 C   0  0  0  0  0  0  0  0  0  0  0  0
   -4.6121    2.2638    1.6314 C   0  0  0  0  0  0  0  0  0  0  0  0
   -3.4500    2.6827    2.0985 C   0  0  0  0  0  0  0  0  0  0  0  0
   -2.1992    2.4188    1.4920 C   0  0  0  0  0  0  0  0  0  0  0  0
   -5.9283    2.8492    2.1165 C   0  0  0  0  0  0  0  0  0  0  0  0
   -6.5658    2.2975    3.1841 C   0  0  0  0  0  0  0  0  0  0  0  0
   -5.9618    1.0956    3.8920 C   0  0  0  0  0  0  0  0  0  0  0  0
   -5.4609    0.0985    4.4793 N   0  0  0  0  0  0  0  0  0  0  0  0
   -7.8819    2.8830    3.6692 C   0  0  0  0  0  0  0  0  0  0  0  0
   -8.5831    3.9667    3.1581 N   0  0  0  0  0  0  0  0  0  0  0  0
   -9.7554    4.3045    3.7863 N   0  0  0  0  0  0  0  0  0  0  0  0
  -10.1617    3.5835    4.8659 C   0  0  0  0  0  0  0  0  0  0  0  0
   -8.9145    2.3918    5.0384 C   0  0  0  0  0  0  0  0  0  0  0  0
   -8.7505    1.2689    6.0496 C   0  0  0  0  0  0  0  0  0  0  0  0
   -8.6145    0.3373    6.8886 N   0  0  0  0  0  0  0  0  0  0  0  0
  -11.3665    3.7698    5.6872 N   0  0  0  0  0  0  0  0  0  0  0  0
  -10.5625    5.4322    3.2985 C   0  0  0  0  0  0  0  0  0  0  0  0
  -11.5598    4.9322    2.2661 C   0  0  0  0  0  0  0  0  0  0  0  0
  -12.3395    6.0215    1.7949 O   0  0  0  0  0  0  0  0  0  0  0  0
    1.9575    0.4237   -0.7459 H   0  0  0  0  0  0  0  0  0  0  0  0
    2.0861   -0.1287    0.8620 H   0  0  0  0  0  0  0  0  0  0  0  0
    0.1401   -1.5919    0.6198 H   0  0  0  0  0  0  0  0  0  0  0  0
    0.8334   -1.7441   -0.9282 H   0  0  0  0  0  0  0  0  0  0  0  0
   -1.6510   -0.9474   -0.8304 H   0  0  0  0  0  0  0  0  0  0  0  0
   -0.6615   -0.0082   -1.8382 H   0  0  0  0  0  0  0  0  0  0  0  0
    0.4797    1.4050    1.5924 H   0  0  0  0  0  0  0  0  0  0  0  0
    0.6932    2.1920    0.0787 H   0  0  0  0  0  0  0  0  0  0  0  0
   -3.3668    0.1735   -0.6168 H   0  0  0  0  0  0  0  0  0  0  0  0
   -5.4441    0.8253    0.3810 H   0  0  0  0  0  0  0  0  0  0  0  0
   -3.4546    3.2415    2.9661 H   0  0  0  0  0  0  0  0  0  0  0  0
   -1.3453    2.9576    1.7057 H   0  0  0  0  0  0  0  0  0  0  0  0
   -6.3383    3.6653    1.6359 H   0  0  0  0  0  0  0  0  0  0  0  0
  -11.9988    4.4944    5.4765 H   0  0  0  0  0  0  0  0  0  0  0  0
  -11.5411    3.1699    6.4481 H   0  0  0  0  0  0  0  0  0  0  0  0
   -9.9212    6.1623    2.8505 H   0  0  0  0  0  0  0  0  0  0  0  0
  -11.0891    5.8748    4.1180 H   0  0  0  0  0  0  0  0  0  0  0  0
  -12.2011    4.2021    2.7141 H   0  0  0  0  0  0  0  0  0  0  0  0
  -11.0333    4.4896    1.4466 H   0  0  0  0  0  0  0  0  0  0  0  0
  -12.8168    6.4227    2.5379 H   0  0  0  0  0  0  0  0  0  0  0  0
  1  2  1  0  0  0  0
  1  5  1  0  0  0  0
  1 27  1  0  0  0  0
  1 28  1  0  0  0  0
  2  3  1  0  0  0  0
  2 29  1  0  0  0  0
  2 30  1  0  0  0  0
  3  4  1  0  0  0  0
  3 31  1  0  0  0  0
  3 32  1  0  0  0  0
  4  5  1  0  0  0  0
  4  6  1  0  0  0  0
  5 33  1  0  0  0  0
  5 34  1  0  0  0  0
  6  7  2  0  0  0  0
  6 11  1  0  0  0  0
  7  8  1  0  0  0  0
  7 35  1  0  0  0  0
  8  9  2  0  0  0  0
  8 36  1  0  0  0  0
  9 10  1  0  0  0  0
  9 12  1  0  0  0  0
 10 11  2  0  0  0  0
 10 37  1  0  0  0  0
 11 38  1  0  0  0  0
 12 13  2  0  0  0  0
 12 39  1  0  0  0  0
 13 14  1  0  0  0  0
 13 16  1  0  0  0  0
 14 15  3  0  0  0  0
 16 17  2  0  0  0  0
 16 20  1  0  0  0  0
 17 18  1  0  0  0  0
 18 19  1  0  0  0  0
 18 24  1  0  0  0  0
 19 20  2  0  0  0  0
 19 23  1  0  0  0  0
 20 21  1  0  0  0  0
 21 22  3  0  0  0  0
 23 40  1  0  0  0  0
 23 41  1  0  0  0  0
 24 25  1  0  0  0  0
 24 42  1  0  0  0  0
 24 43  1  0  0  0  0
 25 26  1  0  0  0  0
 25 44  1  0  0  0  0
 25 45  1  0  0  0  0
 26 46  1  0  0  0  0
M  END
