
 OpenBabel10072620223D

 41 41  0  0  1  0  0  0  0  0999 V2000
    1.3350   -0.2936    0.0612 C   0  0  0  0  0  0  0  0  0  0  0  0
    2.2892    0.8749    0.2114 C   0  0  0  0  0  0  0  0  0  0  0  0
    2.9596    0.8136    1.4772 O   0  0  0  0  0  0  0  0  0  0  0  0
    4.0915    0.0658    1.4953 C   0  0  0  0  0  0  0  0  0  0  0  0
    4.5620   -0.5714    0.5689 O   0  0  0  0  0  0  0  0  0  0  0  0
    4.6931    0.1810    2.8401 C   0  0  0  0  0  0  0  0  0  0  0  0
    5.9107   -0.3304    3.0867 C   0  0  0  0  0  0  0  0  0  0  0  0
    6.7054   -0.2580    4.3843 C   0  0  3  0  0  0  0  0  0  0  0  0
    6.2262    0.8782    5.2863 C   0  0  0  0  0  0  0  0  0  0  0  0
    5.4913    0.6560    6.3906 C   0  0  0  0  0  0  0  0  0  0  0  0
    5.0909   -0.7047    6.8771 C   0  0  0  0  0  0  0  0  0  0  0  0
    5.4165   -1.8577    5.9048 C   0  0  3  0  0  0  0  0  0  0  0  0
    6.7755   -1.6352    5.1582 C   0  0  0  0  0  0  0  0  0  0  0  0
    7.9744   -1.5847    6.1439 C   0  0  0  0  0  0  0  0  0  0  0  0
    7.0622   -2.8066    4.1873 C   0  0  0  0  0  0  0  0  0  0  0  0
    5.3061   -3.1922    6.6528 C   0  0  0  0  0  0  0  0  0  0  0  0
    6.6558    2.2686    4.9016 C   0  0  0  0  0  0  0  0  0  0  0  0
    0.7787   -0.2216   -0.8773 H   0  0  0  0  0  0  0  0  0  0  0  0
    0.6229   -0.3206    0.8915 H   0  0  0  0  0  0  0  0  0  0  0  0
    1.8753   -1.2448    0.0757 H   0  0  0  0  0  0  0  0  0  0  0  0
    1.7291    1.8149    0.1904 H   0  0  0  0  0  0  0  0  0  0  0  0
    3.0066    0.9118   -0.6161 H   0  0  0  0  0  0  0  0  0  0  0  0
    4.1199    0.7105    3.5906 H   0  0  0  0  0  0  0  0  0  0  0  0
    6.4250   -0.8456    2.2735 H   0  0  0  0  0  0  0  0  0  0  0  0
    7.7351   -0.0104    4.0844 H   0  0  0  0  0  0  0  0  0  0  0  0
    5.1790    1.4923    7.0135 H   0  0  0  0  0  0  0  0  0  0  0  0
    4.0123   -0.7035    7.0785 H   0  0  0  0  0  0  0  0  0  0  0  0
    5.5856   -0.8714    7.8424 H   0  0  0  0  0  0  0  0  0  0  0  0
    4.6207   -1.8700    5.1457 H   0  0  0  0  0  0  0  0  0  0  0  0
    7.8760   -0.7930    6.8926 H   0  0  0  0  0  0  0  0  0  0  0  0
    8.9085   -1.3991    5.5987 H   0  0  0  0  0  0  0  0  0  0  0  0
    8.0986   -2.5321    6.6790 H   0  0  0  0  0  0  0  0  0  0  0  0
    6.2016   -3.0240    3.5448 H   0  0  0  0  0  0  0  0  0  0  0  0
    7.3040   -3.7285    4.7287 H   0  0  0  0  0  0  0  0  0  0  0  0
    7.9215   -2.5819    3.5450 H   0  0  0  0  0  0  0  0  0  0  0  0
    6.0714   -3.2893    7.4286 H   0  0  0  0  0  0  0  0  0  0  0  0
    5.3973   -4.0420    5.9703 H   0  0  0  0  0  0  0  0  0  0  0  0
    4.3295   -3.2761    7.1428 H   0  0  0  0  0  0  0  0  0  0  0  0
    7.7486    2.3318    4.8809 H   0  0  0  0  0  0  0  0  0  0  0  0
    6.2962    3.0196    5.6132 H   0  0  0  0  0  0  0  0  0  0  0  0
    6.2725    2.5382    3.9133 H   0  0  0  0  0  0  0  0  0  0  0  0
  1  2  1  0  0  0  0
  1 18  1  0  0  0  0
  1 19  1  0  0  0  0
  1 20  1  0  0  0  0
  2  3  1  0  0  0  0
  2 21  1  0  0  0  0
  2 22  1  0  0  0  0
  3  4  1  0  0  0  0
  4  5  2  0  0  0  0
  4  6  1  0  0  0  0
  6  7  2  0  0  0  0
  6 23  1  0  0  0  0
  7  8  1  0  0  0  0
  7 24  1  0  0  0  0
  8  9  1  0  0  0  0
  8 13  1  0  0  0  0
  8 25  1  0  0  0  0
  9 10  2  0  0  0  0
  9 17  1  0  0  0  0
 10 11  1  0  0  0  0
 10 26  1  0  0  0  0
 11 12  1  0  0  0  0
 11 27  1  0  0  0  0
 11 28  1  0  0  0  0
 12 13  1  0  0  0  0
 12 16  1  0  0  0  0
 12 29  1  0  0  0  0
 13 14  1  0  0  0  0
 13 15  1  0  0  0  0
 14 30  1  0  0  0  0
 14 31  1  0  0  0  0
 14 32  1  0  0  0  0
 15 33  1  0  0  0  0
 15 34  1  0  0  0  0
 15 35  1  0  0  0  0
 16 36  1  0  0  0  0
 16 37  1  0  0  0  0
 16 38  1  0  0  0  0
 17 39  1  0  0  0  0
 17 40  1  0  0  0  0
 17 41  1  0  0  0  0
M  END
