
 OpenBabel10072620113D

 47 50  0  0  0  0  0  0  0  0999 V2000
    1.2013   -2.7966    0.4040 C   0  0  0  0  0  0  0  0  0  0  0  0
    2.2706   -1.7372    0.6054 C   0  0  0  0  0  0  0  0  0  0  0  0
    3.4453   -1.9929   -0.2752 N   0  0  0  0  0  0  0  0  0  0  0  0
    3.2103   -1.7666   -1.7306 C   0  0  0  0  0  0  0  0  0  0  0  0
    2.9092   -0.3234   -2.0956 C   0  0  0  0  0  0  0  0  0  0  0  0
    4.9390   -1.3886    0.3244 S   0  0  0  0  0  0  0  0  0  0  0  0
    5.9763   -1.6934   -0.6367 O   0  0  0  0  0  0  0  0  0  0  0  0
    4.6791   -0.0303    0.7459 O   0  0  0  0  0  0  0  0  0  0  0  0
    5.2331   -2.4562    1.7374 C   0  0  0  0  0  0  0  0  0  0  0  0
    5.1671   -3.8346    1.4327 C   0  0  0  0  0  0  0  0  0  0  0  0
    5.3303   -4.7046    2.4957 C   0  0  0  0  0  0  0  0  0  0  0  0
    5.5362   -4.3220    3.8065 C   0  0  0  0  0  0  0  0  0  0  0  0
    5.6137   -2.9410    4.1017 C   0  0  0  0  0  0  0  0  0  0  0  0
    5.8285   -2.5751    5.4452 C   0  0  0  0  0  0  0  0  0  0  0  0
    5.9521   -1.2356    5.7909 C   0  0  0  0  0  0  0  0  0  0  0  0
    5.8697   -0.2636    4.8029 C   0  0  0  0  0  0  0  0  0  0  0  0
    5.6473   -0.6237    3.4664 C   0  0  0  0  0  0  0  0  0  0  0  0
    5.4885   -1.9736    3.0602 C   0  0  0  0  0  0  0  0  0  0  0  0
    5.6395   -5.4453    4.6006 N   0  0  0  0  0  0  0  0  0  0  0  0
    5.5173   -6.4518    3.7516 C   0  0  0  0  0  0  0  0  0  0  0  0
    5.3167   -6.0662    2.4489 O   0  0  0  0  0  0  0  0  0  0  0  0
    5.5730   -7.8904    4.0077 C   0  0  0  0  0  0  0  0  0  0  0  0
    5.6703   -8.3616    5.3263 C   0  0  0  0  0  0  0  0  0  0  0  0
    5.7432   -9.7317    5.5947 C   0  0  0  0  0  0  0  0  0  0  0  0
    5.7229  -10.6493    4.5467 C   0  0  0  0  0  0  0  0  0  0  0  0
    5.6186  -10.1999    3.2324 C   0  0  0  0  0  0  0  0  0  0  0  0
    5.5435   -8.8299    2.9646 C   0  0  0  0  0  0  0  0  0  0  0  0
    0.4133   -2.6821    1.1549 H   0  0  0  0  0  0  0  0  0  0  0  0
    1.6214   -3.8033    0.4944 H   0  0  0  0  0  0  0  0  0  0  0  0
    0.7315   -2.7117   -0.5801 H   0  0  0  0  0  0  0  0  0  0  0  0
    2.5761   -1.7736    1.6561 H   0  0  0  0  0  0  0  0  0  0  0  0
    1.8585   -0.7396    0.4316 H   0  0  0  0  0  0  0  0  0  0  0  0
    2.3868   -2.4074   -2.0623 H   0  0  0  0  0  0  0  0  0  0  0  0
    4.0821   -2.1165   -2.2946 H   0  0  0  0  0  0  0  0  0  0  0  0
    1.9934    0.0357   -1.6170 H   0  0  0  0  0  0  0  0  0  0  0  0
    2.7645   -0.2395   -3.1781 H   0  0  0  0  0  0  0  0  0  0  0  0
    3.7266    0.3467   -1.8151 H   0  0  0  0  0  0  0  0  0  0  0  0
    4.9936   -4.2017    0.4268 H   0  0  0  0  0  0  0  0  0  0  0  0
    5.9081   -3.3365    6.2196 H   0  0  0  0  0  0  0  0  0  0  0  0
    6.1222   -0.9517    6.8259 H   0  0  0  0  0  0  0  0  0  0  0  0
    5.9823    0.7865    5.0639 H   0  0  0  0  0  0  0  0  0  0  0  0
    5.6238    0.1934    2.7519 H   0  0  0  0  0  0  0  0  0  0  0  0
    5.6928   -7.6568    6.1563 H   0  0  0  0  0  0  0  0  0  0  0  0
    5.8194  -10.0803    6.6216 H   0  0  0  0  0  0  0  0  0  0  0  0
    5.7868  -11.7146    4.7539 H   0  0  0  0  0  0  0  0  0  0  0  0
    5.5997  -10.9143    2.4131 H   0  0  0  0  0  0  0  0  0  0  0  0
    5.4699   -8.5033    1.9293 H   0  0  0  0  0  0  0  0  0  0  0  0
  1  2  1  0  0  0  0
  1 28  1  0  0  0  0
  1 29  1  0  0  0  0
  1 30  1  0  0  0  0
  2  3  1  0  0  0  0
  2 31  1  0  0  0  0
  2 32  1  0  0  0  0
  3  4  1  0  0  0  0
  3  6  1  0  0  0  0
  4  5  1  0  0  0  0
  4 33  1  0  0  0  0
  4 34  1  0  0  0  0
  5 35  1  0  0  0  0
  5 36  1  0  0  0  0
  5 37  1  0  0  0  0
  6  7  2  0  0  0  0
  6  8  2  0  0  0  0
  6  9  1  0  0  0  0
  9 10  2  0  0  0  0
  9 18  1  0  0  0  0
 10 11  1  0  0  0  0
 10 38  1  0  0  0  0
 11 12  2  0  0  0  0
 11 21  1  0  0  0  0
 12 13  1  0  0  0  0
 12 19  1  0  0  0  0
 13 14  2  0  0  0  0
 13 18  1  0  0  0  0
 14 15  1  0  0  0  0
 14 39  1  0  0  0  0
 15 16  2  0  0  0  0
 15 40  1  0  0  0  0
 16 17  1  0  0  0  0
 16 41  1  0  0  0  0
 17 18  2  0  0  0  0
 17 42  1  0  0  0  0
 19 20  2  0  0  0  0
 20 21  1  0  0  0  0
 20 22  1  0  0  0  0
 22 23  2  0  0  0  0
 22 27  1  0  0  0  0
 23 24  1  0  0  0  0
 23 43  1  0  0  0  0
 24 25  2  0  0  0  0
 24 44  1  0  0  0  0
 25 26  1  0  0  0  0
 25 45  1  0  0  0  0
 26 27  2  0  0  0  0
 26 46  1  0  0  0  0
 27 47  1  0  0  0  0
M  END
