
 OpenBabel10072616343D

 32 31  0  0  0  0  0  0  0  0999 V2000
    3.9172   -6.7498   -2.4775 C   0  0  0  0  0  0  0  0  0  0  0  0
    3.8402   -5.6726   -1.6844 C   0  0  0  0  0  0  0  0  0  0  0  0
    3.8560   -4.2591   -2.1767 C   0  0  0  0  0  0  0  0  0  0  0  0
    5.2100   -3.7641   -1.8781 N   0  0  0  0  0  0  0  0  0  0  0  0
    5.4460   -2.1273   -2.3037 S   0  0  0  0  0  0  0  0  0  0  0  0
    5.3653   -2.1168   -3.7492 O   0  0  0  0  0  0  0  0  0  0  0  0
    4.5125   -1.3669   -1.5010 O   0  0  0  0  0  0  0  0  0  0  0  0
    7.1685   -1.8437   -1.7598 C   0  0  0  0  0  0  0  0  0  0  0  0
    7.5750   -0.4351   -2.1144 C   0  0  0  0  0  0  0  0  0  0  0  0
    8.9595   -0.0633   -1.6006 C   0  0  0  0  0  0  0  0  0  0  0  0
   10.1514   -0.9142   -2.0222 C   0  0  0  0  0  0  0  0  0  0  0  0
   10.3572   -0.9948   -3.5165 C   0  0  0  0  0  0  0  0  0  0  0  0
   11.6114   -1.7914   -3.8306 C   0  0  0  0  0  0  0  0  0  0  0  0
   11.5576   -3.0468   -3.3282 F   0  0  0  0  0  0  0  0  0  0  0  0
   11.7895   -1.9187   -5.1691 F   0  0  0  0  0  0  0  0  0  0  0  0
   12.7307   -1.2151   -3.3403 F   0  0  0  0  0  0  0  0  0  0  0  0
    9.2775   -1.5930   -4.0930 F   0  0  0  0  0  0  0  0  0  0  0  0
   10.4291    0.2521   -4.0566 F   0  0  0  0  0  0  0  0  0  0  0  0
   11.2734   -0.3945   -1.4398 F   0  0  0  0  0  0  0  0  0  0  0  0
   10.0298   -2.1584   -1.4858 F   0  0  0  0  0  0  0  0  0  0  0  0
    9.2128    1.2373   -1.9523 F   0  0  0  0  0  0  0  0  0  0  0  0
    8.9175   -0.0503   -0.2297 F   0  0  0  0  0  0  0  0  0  0  0  0
    7.5207   -0.2289   -3.4553 F   0  0  0  0  0  0  0  0  0  0  0  0
    6.6835    0.4515   -1.5799 F   0  0  0  0  0  0  0  0  0  0  0  0
    7.3090   -2.0640   -0.4214 F   0  0  0  0  0  0  0  0  0  0  0  0
    7.9896   -2.7525   -2.3679 F   0  0  0  0  0  0  0  0  0  0  0  0
    3.9213   -7.7502   -2.0524 H   0  0  0  0  0  0  0  0  0  0  0  0
    3.9917   -6.6538   -3.5575 H   0  0  0  0  0  0  0  0  0  0  0  0
    3.7712   -5.7997   -0.6059 H   0  0  0  0  0  0  0  0  0  0  0  0
    3.0862   -3.6818   -1.6555 H   0  0  0  0  0  0  0  0  0  0  0  0
    3.6617   -4.2173   -3.2547 H   0  0  0  0  0  0  0  0  0  0  0  0
    5.9161   -4.3641   -2.3141 H   0  0  0  0  0  0  0  0  0  0  0  0
  1  2  2  0  0  0  0
  1 27  1  0  0  0  0
  1 28  1  0  0  0  0
  2  3  1  0  0  0  0
  2 29  1  0  0  0  0
  3  4  1  0  0  0  0
  3 30  1  0  0  0  0
  3 31  1  0  0  0  0
  4  5  1  0  0  0  0
  4 32  1  0  0  0  0
  5  6  2  0  0  0  0
  5  7  2  0  0  0  0
  5  8  1  0  0  0  0
  8  9  1  0  0  0  0
  8 25  1  0  0  0  0
  8 26  1  0  0  0  0
  9 10  1  0  0  0  0
  9 23  1  0  0  0  0
  9 24  1  0  0  0  0
 10 11  1  0  0  0  0
 10 21  1  0  0  0  0
 10 22  1  0  0  0  0
 11 12  1  0  0  0  0
 11 19  1  0  0  0  0
 11 20  1  0  0  0  0
 12 13  1  0  0  0  0
 12 17  1  0  0  0  0
 12 18  1  0  0  0  0
 13 14  1  0  0  0  0
 13 15  1  0  0  0  0
 13 16  1  0  0  0  0
M  END
