
 OpenBabel10072620093D

 29 30  0  0  0  0  0  0  0  0999 V2000
   -1.3617    0.4663   -0.3247 C   0  0  0  0  0  0  0  0  0  0  0  0
   -1.0895   -0.9828    0.0662 C   0  0  0  0  0  0  0  0  0  0  0  0
    0.3211   -1.4184   -0.3221 C   0  0  0  0  0  0  0  0  0  0  0  0
    1.3870   -0.4731    0.2502 C   0  0  0  0  0  0  0  0  0  0  0  0
    1.1031    0.9797   -0.1496 C   0  0  0  0  0  0  0  0  0  0  0  0
   -0.3072    1.4097    0.2448 C   0  0  0  0  0  0  0  0  0  0  0  0
    2.7218   -0.8584   -0.1978 N   0  0  0  0  0  0  0  0  0  0  0  0
    3.3962   -1.9060    0.4113 C   0  0  0  0  0  0  0  0  0  0  0  0
    2.9346   -2.5153    1.3659 O   0  0  0  0  0  0  0  0  0  0  0  0
    4.6199   -2.0996   -0.1870 N   0  0  0  0  0  0  0  0  0  0  0  0
    5.5049   -3.1210    0.1286 C   0  0  0  0  0  0  0  0  0  0  0  0
    5.2162   -4.1569    0.9191 N   0  0  0  0  0  0  0  0  0  0  0  0
    6.5902   -5.0995    0.9767 S   0  0  0  0  0  0  0  0  0  0  0  0
    7.5929   -4.2160   -0.0333 N   0  0  0  0  0  0  0  0  0  0  0  0
    6.8437   -3.1761   -0.4037 C   0  0  0  0  0  0  0  0  0  0  0  0
   -2.3551    0.7643    0.0296 H   0  0  0  0  0  0  0  0  0  0  0  0
   -1.3730    0.5519   -1.4182 H   0  0  0  0  0  0  0  0  0  0  0  0
   -1.8221   -1.6373   -0.4189 H   0  0  0  0  0  0  0  0  0  0  0  0
   -1.2235   -1.1012    1.1484 H   0  0  0  0  0  0  0  0  0  0  0  0
    0.4028   -1.4488   -1.4167 H   0  0  0  0  0  0  0  0  0  0  0  0
    0.4925   -2.4435    0.0273 H   0  0  0  0  0  0  0  0  0  0  0  0
    1.3673   -0.5443    1.3458 H   0  0  0  0  0  0  0  0  0  0  0  0
    1.2296    1.1014   -1.2336 H   0  0  0  0  0  0  0  0  0  0  0  0
    1.8347    1.6468    0.3229 H   0  0  0  0  0  0  0  0  0  0  0  0
   -0.4945    2.4285   -0.1120 H   0  0  0  0  0  0  0  0  0  0  0  0
   -0.3903    1.4344    1.3383 H   0  0  0  0  0  0  0  0  0  0  0  0
    2.9055   -0.7429   -1.1831 H   0  0  0  0  0  0  0  0  0  0  0  0
    4.9606   -1.3621   -0.7806 H   0  0  0  0  0  0  0  0  0  0  0  0
    7.2959   -2.4537   -1.0690 H   0  0  0  0  0  0  0  0  0  0  0  0
  1  2  1  0  0  0  0
  1  6  1  0  0  0  0
  1 16  1  0  0  0  0
  1 17  1  0  0  0  0
  2  3  1  0  0  0  0
  2 18  1  0  0  0  0
  2 19  1  0  0  0  0
  3  4  1  0  0  0  0
  3 20  1  0  0  0  0
  3 21  1  0  0  0  0
  4  5  1  0  0  0  0
  4  7  1  0  0  0  0
  4 22  1  0  0  0  0
  5  6  1  0  0  0  0
  5 23  1  0  0  0  0
  5 24  1  0  0  0  0
  6 25  1  0  0  0  0
  6 26  1  0  0  0  0
  7  8  1  0  0  0  0
  7 27  1  0  0  0  0
  8  9  2  0  0  0  0
  8 10  1  0  0  0  0
 10 11  1  0  0  0  0
 10 28  1  0  0  0  0
 11 12  2  0  0  0  0
 11 15  1  0  0  0  0
 12 13  1  0  0  0  0
 13 14  1  0  0  0  0
 14 15  2  0  0  0  0
 15 29  1  0  0  0  0
M  END
