
 OpenBabel10072619283D

222232  0  0  1  0  0  0  0  0999 V2000
    1.6001   -8.0264    3.2580 C   0  0  0  0  0  0  0  0  0  0  0  0
    2.1424   -6.9657    3.9810 C   0  0  0  0  0  0  0  0  0  0  0  0
    1.7218   -5.6599    3.7315 C   0  0  0  0  0  0  0  0  0  0  0  0
    0.7541   -5.4043    2.7543 C   0  0  0  0  0  0  0  0  0  0  0  0
    0.1990   -6.4806    2.0460 C   0  0  0  0  0  0  0  0  0  0  0  0
    0.6244   -7.7851    2.2947 C   0  0  0  0  0  0  0  0  0  0  0  0
    0.2757   -3.9990    2.5048 C   0  0  0  0  0  0  0  0  0  0  0  0
    1.2830   -3.0677    2.0802 O   0  0  0  0  0  0  0  0  0  0  0  0
    1.9397   -3.3925    0.8506 C   0  0  2  0  0  0  0  0  0  0  0  0
    3.0338   -2.3488    0.5796 C   0  0  2  0  0  0  0  0  0  0  0  0
    3.4399   -2.3038   -0.9157 C   0  0  3  0  0  0  0  0  0  0  0  0
    3.2327   -3.6770   -1.5995 C   0  0  2  0  0  0  0  0  0  0  0  0
    1.9493   -4.3021   -1.3384 O   0  0  0  0  0  0  0  0  0  0  0  0
    1.0857   -3.6006   -0.4114 C   0  0  3  0  0  0  0  0  0  0  0  0
    0.5336   -2.5276   -1.1363 O   0  0  0  0  0  0  0  0  0  0  0  0
    0.0283   -1.2922   -0.6473 C   0  0  3  0  0  0  0  0  0  0  0  0
   -0.9175   -1.2929    0.5603 C   0  0  2  0  0  0  0  0  0  0  0  0
   -2.1158   -1.9969    0.2533 O   0  0  0  0  0  0  0  0  0  0  0  0
   -2.9296   -1.3956   -0.7471 C   0  0  3  0  0  0  0  0  0  0  0  0
   -2.1443   -1.2514   -2.0785 C   0  0  1  0  0  0  0  0  0  0  0  0
   -0.7056   -0.7058   -1.8786 C   0  0  1  0  0  0  0  0  0  0  0  0
   -0.6547    0.7250   -1.8394 O   0  0  0  0  0  0  0  0  0  0  0  0
   -2.0075   -2.5364   -2.7112 O   0  0  0  0  0  0  0  0  0  0  0  0
   -2.9672   -2.7680   -3.7402 C   0  0  0  0  0  0  0  0  0  0  0  0
   -2.8335   -4.1687   -4.2817 C   0  0  0  0  0  0  0  0  0  0  0  0
   -1.7116   -4.9613   -4.0050 C   0  0  0  0  0  0  0  0  0  0  0  0
   -1.6132   -6.2558   -4.5111 C   0  0  0  0  0  0  0  0  0  0  0  0
   -2.6303   -6.7693   -5.3112 C   0  0  0  0  0  0  0  0  0  0  0  0
   -3.7524   -5.9955   -5.5963 C   0  0  0  0  0  0  0  0  0  0  0  0
   -3.8532   -4.7013   -5.0850 C   0  0  0  0  0  0  0  0  0  0  0  0
   -4.0983   -2.2154   -0.9321 O   0  0  0  0  0  0  0  0  0  0  0  0
   -5.1352   -2.1930    0.0757 C   0  0  3  0  0  0  0  0  0  0  0  0
   -6.2074   -1.1643   -0.3334 C   0  0  2  0  0  0  0  0  0  0  0  0
   -7.1310   -0.8365    0.7125 O   0  0  0  0  0  0  0  0  0  0  0  0
   -6.5224   -0.4193    1.9251 C   0  0  1  0  0  0  0  0  0  0  0  0
   -5.7141   -1.5745    2.5440 C   0  0  1  0  0  0  0  0  0  0  0  0
   -4.6628   -2.0550    1.5306 C   0  0  1  0  0  0  0  0  0  0  0  0
   -3.9174   -3.1929    1.9831 O   0  0  0  0  0  0  0  0  0  0  0  0
   -4.5894   -4.6492    2.1992 S   0  0  0  0  0  0  0  0  0  0  0  0
   -5.4915   -4.5556    3.3211 O   0  0  0  0  0  0  0  0  0  0  0  0
   -5.0234   -5.1856    0.9299 O   0  0  0  0  0  0  0  0  0  0  0  0
   -3.3350   -5.5183    2.7096 O   0  0  0  0  0  0  0  0  0  0  0  0
   -4.9391   -1.0977    3.6476 O   0  0  0  0  0  0  0  0  0  0  0  0
   -5.5249   -0.9454    5.1408 S   0  0  0  0  0  0  0  0  0  0  0  0
   -6.0028   -2.2211    5.5992 O   0  0  0  0  0  0  0  0  0  0  0  0
   -4.5132   -0.1968    5.8676 O   0  0  0  0  0  0  0  0  0  0  0  0
   -6.7874    0.0297    4.9563 O   0  0  0  0  0  0  0  0  0  0  0  0
   -5.6400    0.6758    1.6984 O   0  0  0  0  0  0  0  0  0  0  0  0
   -6.2197    1.9994    1.7488 C   0  0  3  0  0  0  0  0  0  0  0  0
   -5.9909    2.6414    0.3471 C   0  0  2  0  0  0  0  0  0  0  0  0
   -5.5373    4.0067    0.3001 O   0  0  0  0  0  0  0  0  0  0  0  0
   -4.6107    4.3761    1.3100 C   0  0  3  0  0  0  0  0  0  0  0  0
   -5.3400    4.2111    2.6589 C   0  0  3  0  0  0  0  0  0  0  0  0
   -5.5029    2.7095    2.9052 C   0  0  1  0  0  0  0  0  0  0  0  0
   -6.1810    2.4400    4.1586 O   0  0  0  0  0  0  0  0  0  0  0  0
   -4.6189    4.7743    3.7594 O   0  0  0  0  0  0  0  0  0  0  0  0
   -3.4586    3.5409    1.3240 O   0  0  0  0  0  0  0  0  0  0  0  0
   -2.3816    3.7812    0.4290 C   0  0  3  0  0  0  0  0  0  0  0  0
   -1.3449    4.8001    0.9165 C   0  0  2  0  0  0  0  0  0  0  0  0
   -0.1089    4.4046    0.3141 O   0  0  0  0  0  0  0  0  0  0  0  0
   -0.0948    4.3005   -1.0980 C   0  0  3  0  0  0  0  0  0  0  0  0
   -1.4496    4.6299   -1.7964 C   0  0  3  0  0  0  0  0  0  0  0  0
   -2.6913    4.0499   -1.0622 C   0  0  1  0  0  0  0  0  0  0  0  0
   -3.1342    2.8322   -1.6845 O   0  0  0  0  0  0  0  0  0  0  0  0
   -1.6103    6.0614   -1.8526 O   0  0  0  0  0  0  0  0  0  0  0  0
    0.9214    5.2221   -1.5352 O   0  0  0  0  0  0  0  0  0  0  0  0
    2.1909    4.6168   -1.8142 C   0  0  3  0  0  0  0  0  0  0  0  0
    3.1151    4.1225   -0.6688 C   0  0  2  0  0  0  0  0  0  0  0  0
    4.1303    3.2787   -1.2506 O   0  0  0  0  0  0  0  0  0  0  0  0
    4.5639    3.6634   -2.5511 C   0  0  3  0  0  0  0  0  0  0  0  0
    4.5363    5.1858   -2.7449 C   0  0  3  0  0  0  0  0  0  0  0  0
    3.0674    5.6553   -2.5972 C   0  0  1  0  0  0  0  0  0  0  0  0
    2.5052    5.8273   -3.9072 O   0  0  0  0  0  0  0  0  0  0  0  0
    5.3656    5.8267   -1.7651 O   0  0  0  0  0  0  0  0  0  0  0  0
    5.8524    3.1192   -2.8134 O   0  0  0  0  0  0  0  0  0  0  0  0
    5.9917    1.6833   -2.6088 C   0  0  3  0  0  0  0  0  0  0  0  0
    4.7114    0.8304   -2.8502 C   0  0  2  0  0  0  0  0  0  0  0  0
    4.1146    0.3902   -1.6242 O   0  0  0  0  0  0  0  0  0  0  0  0
    4.9290   -0.4275   -0.7879 C   0  0  3  0  0  0  0  0  0  0  0  0
    4.7698   -1.8051   -1.1469 O   0  0  0  0  0  0  0  0  0  0  0  0
    6.4255   -0.0569   -0.8381 C   0  0  1  0  0  0  0  0  0  0  0  0
    6.5664    1.4202   -1.2011 C   0  0  1  0  0  0  0  0  0  0  0  0
    7.9654    1.7535   -1.1705 O   0  0  0  0  0  0  0  0  0  0  0  0
    7.0786   -0.2770    0.4331 O   0  0  0  0  0  0  0  0  0  0  0  0
    7.4280   -1.6573    0.6074 C   0  0  0  0  0  0  0  0  0  0  0  0
    8.0447   -1.8781    1.9635 C   0  0  0  0  0  0  0  0  0  0  0  0
    7.5603   -2.8920    2.8043 C   0  0  0  0  0  0  0  0  0  0  0  0
    8.1473   -3.1226    4.0488 C   0  0  0  0  0  0  0  0  0  0  0  0
    9.2305   -2.3501    4.4609 C   0  0  0  0  0  0  0  0  0  0  0  0
    9.7293   -1.3499    3.6282 C   0  0  0  0  0  0  0  0  0  0  0  0
    9.1444   -1.1188    2.3827 C   0  0  0  0  0  0  0  0  0  0  0  0
    4.8856   -0.3086   -3.8680 C   0  0  0  0  0  0  0  0  0  0  0  0
    3.6669   -1.0320   -4.0676 O   0  0  0  0  0  0  0  0  0  0  0  0
    2.3868   -0.2730   -4.7258 S   0  0  0  0  0  0  0  0  0  0  0  0
    2.7875    0.2876   -5.9940 O   0  0  0  0  0  0  0  0  0  0  0  0
    1.7364    0.5363   -3.7126 O   0  0  0  0  0  0  0  0  0  0  0  0
    1.3882   -1.4809   -5.0813 O   0  0  0  0  0  0  0  0  0  0  0  0
    2.5273    3.3367    0.4939 C   0  0  0  0  0  0  0  0  0  0  0  0
    3.5683    2.9376    1.3947 O   0  0  0  0  0  0  0  0  0  0  0  0
    3.0676    2.2455    2.7727 S   0  0  0  0  0  0  0  0  0  0  0  0
    2.5967    0.9214    2.4404 O   0  0  0  0  0  0  0  0  0  0  0  0
    2.2479    3.2074    3.4843 O   0  0  0  0  0  0  0  0  0  0  0  0
    4.4179    2.0259    3.6157 O   0  0  0  0  0  0  0  0  0  0  0  0
   -1.1093    4.8328    2.4305 C   0  0  0  0  0  0  0  0  0  0  0  0
    0.0078    5.6821    2.6818 O   0  0  0  0  0  0  0  0  0  0  0  0
    0.4159    6.0224    4.2137 S   0  0  0  0  0  0  0  0  0  0  0  0
    1.7130    6.6575    4.1891 O   0  0  0  0  0  0  0  0  0  0  0  0
   -0.7262    6.6361    4.8546 O   0  0  0  0  0  0  0  0  0  0  0  0
    0.6217    4.5670    4.8660 O   0  0  0  0  0  0  0  0  0  0  0  0
   -7.2901    2.6032   -0.4825 C   0  0  0  0  0  0  0  0  0  0  0  0
   -8.3233    3.2517    0.2521 O   0  0  0  0  0  0  0  0  0  0  0  0
   -9.7983    3.3578   -0.4120 S   0  0  0  0  0  0  0  0  0  0  0  0
   -9.6835    3.9769   -1.7105 O   0  0  0  0  0  0  0  0  0  0  0  0
  -10.7110    3.8401    0.5978 O   0  0  0  0  0  0  0  0  0  0  0  0
  -10.2015    1.8158   -0.6329 O   0  0  0  0  0  0  0  0  0  0  0  0
   -7.0510   -1.6875   -1.5112 C   0  0  0  0  0  0  0  0  0  0  0  0
   -7.6041   -2.9478   -1.1533 O   0  0  0  0  0  0  0  0  0  0  0  0
   -8.1976   -3.8898   -2.3270 S   0  0  0  0  0  0  0  0  0  0  0  0
   -7.2114   -3.9662   -3.3814 O   0  0  0  0  0  0  0  0  0  0  0  0
   -9.5599   -3.4851   -2.5806 O   0  0  0  0  0  0  0  0  0  0  0  0
   -8.2173   -5.3270   -1.6035 O   0  0  0  0  0  0  0  0  0  0  0  0
   -1.1798    0.1184    1.1228 C   0  0  0  0  0  0  0  0  0  0  0  0
   -2.0546    0.1140    2.2441 O   0  0  0  0  0  0  0  0  0  0  0  0
   -1.4702   -0.1876    3.7272 S   0  0  0  0  0  0  0  0  0  0  0  0
   -0.1029    0.2689    3.7954 O   0  0  0  0  0  0  0  0  0  0  0  0
   -1.8562   -1.5316    4.0934 O   0  0  0  0  0  0  0  0  0  0  0  0
   -2.3444    0.8046    4.6427 O   0  0  0  0  0  0  0  0  0  0  0  0
    4.3498   -4.6668   -1.2439 C   0  0  0  0  0  0  0  0  0  0  0  0
    4.1397   -5.8771   -1.9646 O   0  0  0  0  0  0  0  0  0  0  0  0
    5.0886   -7.1376   -1.5975 S   0  0  0  0  0  0  0  0  0  0  0  0
    4.6357   -8.2765   -2.3636 O   0  0  0  0  0  0  0  0  0  0  0  0
    6.4629   -6.6974   -1.6087 O   0  0  0  0  0  0  0  0  0  0  0  0
    4.6712   -7.4467   -0.0727 O   0  0  0  0  0  0  0  0  0  0  0  0
    4.1577   -2.6500    1.4264 O   0  0  0  0  0  0  0  0  0  0  0  0
    1.9201   -9.0440    3.4655 H   0  0  0  0  0  0  0  0  0  0  0  0
    2.8815   -7.1577    4.7538 H   0  0  0  0  0  0  0  0  0  0  0  0
    2.1388   -4.8412    4.3129 H   0  0  0  0  0  0  0  0  0  0  0  0
   -0.5839   -6.3166    1.3072 H   0  0  0  0  0  0  0  0  0  0  0  0
    0.1775   -8.6143    1.7524 H   0  0  0  0  0  0  0  0  0  0  0  0
   -0.1377   -3.6139    3.4411 H   0  0  0  0  0  0  0  0  0  0  0  0
   -0.5573   -3.9921    1.7978 H   0  0  0  0  0  0  0  0  0  0  0  0
    2.4597   -4.3386    1.0506 H   0  0  0  0  0  0  0  0  0  0  0  0
    2.6995   -1.3530    0.8905 H   0  0  0  0  0  0  0  0  0  0  0  0
    2.7490   -1.6246   -1.4268 H   0  0  0  0  0  0  0  0  0  0  0  0
    3.2712   -3.5377   -2.6874 H   0  0  0  0  0  0  0  0  0  0  0  0
    0.2590   -4.2832   -0.2074 H   0  0  0  0  0  0  0  0  0  0  0  0
    0.8839   -0.6537   -0.4054 H   0  0  0  0  0  0  0  0  0  0  0  0
   -0.4804   -1.8493    1.3731 H   0  0  0  0  0  0  0  0  0  0  0  0
   -3.2778   -0.4065   -0.4326 H   0  0  0  0  0  0  0  0  0  0  0  0
   -2.7003   -0.5749   -2.7395 H   0  0  0  0  0  0  0  0  0  0  0  0
   -0.1456   -1.0023   -2.7738 H   0  0  0  0  0  0  0  0  0  0  0  0
    0.1426    0.9471   -2.3717 H   0  0  0  0  0  0  0  0  0  0  0  0
   -2.8015   -2.0400   -4.5444 H   0  0  0  0  0  0  0  0  0  0  0  0
   -3.9810   -2.6472   -3.3480 H   0  0  0  0  0  0  0  0  0  0  0  0
   -0.9114   -4.5769   -3.3752 H   0  0  0  0  0  0  0  0  0  0  0  0
   -0.7423   -6.8593   -4.2724 H   0  0  0  0  0  0  0  0  0  0  0  0
   -2.5498   -7.7767   -5.7056 H   0  0  0  0  0  0  0  0  0  0  0  0
   -4.5527   -6.4018   -6.2085 H   0  0  0  0  0  0  0  0  0  0  0  0
   -4.7442   -4.1171   -5.3046 H   0  0  0  0  0  0  0  0  0  0  0  0
   -5.5998   -3.1731   -0.0033 H   0  0  0  0  0  0  0  0  0  0  0  0
   -5.7221   -0.2462   -0.6762 H   0  0  0  0  0  0  0  0  0  0  0  0
   -7.3220   -0.1358    2.6142 H   0  0  0  0  0  0  0  0  0  0  0  0
   -6.3827   -2.3832    2.8463 H   0  0  0  0  0  0  0  0  0  0  0  0
   -3.9212   -1.2596    1.5431 H   0  0  0  0  0  0  0  0  0  0  0  0
   -3.1585   -5.2769    3.6417 H   0  0  0  0  0  0  0  0  0  0  0  0
   -6.4789    0.9583    4.8021 H   0  0  0  0  0  0  0  0  0  0  0  0
   -7.2857    1.9166    1.9854 H   0  0  0  0  0  0  0  0  0  0  0  0
   -5.2461    2.0508   -0.1974 H   0  0  0  0  0  0  0  0  0  0  0  0
   -4.3049    5.4181    1.1731 H   0  0  0  0  0  0  0  0  0  0  0  0
   -6.3145    4.7102    2.6313 H   0  0  0  0  0  0  0  0  0  0  0  0
   -4.5126    2.2618    3.0529 H   0  0  0  0  0  0  0  0  0  0  0  0
   -5.9069    3.1786    4.7531 H   0  0  0  0  0  0  0  0  0  0  0  0
   -3.7378    4.3598    3.7828 H   0  0  0  0  0  0  0  0  0  0  0  0
   -1.8708    2.8128    0.4352 H   0  0  0  0  0  0  0  0  0  0  0  0
   -1.5882    5.8214    0.5994 H   0  0  0  0  0  0  0  0  0  0  0  0
    0.1737    3.2666   -1.3469 H   0  0  0  0  0  0  0  0  0  0  0  0
   -1.4039    4.2933   -2.8385 H   0  0  0  0  0  0  0  0  0  0  0  0
   -3.5242    4.7572   -1.1440 H   0  0  0  0  0  0  0  0  0  0  0  0
   -3.6128    3.0986   -2.4927 H   0  0  0  0  0  0  0  0  0  0  0  0
   -0.7053    6.4205   -1.9602 H   0  0  0  0  0  0  0  0  0  0  0  0
    1.9703    3.7874   -2.5005 H   0  0  0  0  0  0  0  0  0  0  0  0
    3.6280    4.9763   -0.2094 H   0  0  0  0  0  0  0  0  0  0  0  0
    3.8812    3.2812   -3.3156 H   0  0  0  0  0  0  0  0  0  0  0  0
    4.9440    5.4475   -3.7265 H   0  0  0  0  0  0  0  0  0  0  0  0
    3.0322    6.6334   -2.0998 H   0  0  0  0  0  0  0  0  0  0  0  0
    1.7422    6.4241   -3.8050 H   0  0  0  0  0  0  0  0  0  0  0  0
    6.2044    5.3228   -1.7563 H   0  0  0  0  0  0  0  0  0  0  0  0
    6.7488    1.4012   -3.3531 H   0  0  0  0  0  0  0  0  0  0  0  0
    3.9467    1.4487   -3.2989 H   0  0  0  0  0  0  0  0  0  0  0  0
    4.5789   -0.2809    0.2391 H   0  0  0  0  0  0  0  0  0  0  0  0
    6.9572   -0.6540   -1.5909 H   0  0  0  0  0  0  0  0  0  0  0  0
    6.1019    2.0589   -0.4434 H   0  0  0  0  0  0  0  0  0  0  0  0
    8.2578    1.4890   -0.2733 H   0  0  0  0  0  0  0  0  0  0  0  0
    8.1487   -1.9577   -0.1630 H   0  0  0  0  0  0  0  0  0  0  0  0
    6.5363   -2.2785    0.5068 H   0  0  0  0  0  0  0  0  0  0  0  0
    6.7278   -3.5172    2.4870 H   0  0  0  0  0  0  0  0  0  0  0  0
    7.7658   -3.9118    4.6909 H   0  0  0  0  0  0  0  0  0  0  0  0
    9.6923   -2.5342    5.4272 H   0  0  0  0  0  0  0  0  0  0  0  0
   10.5809   -0.7546    3.9454 H   0  0  0  0  0  0  0  0  0  0  0  0
    9.5549   -0.3488    1.7342 H   0  0  0  0  0  0  0  0  0  0  0  0
    5.6290   -1.0320   -3.5254 H   0  0  0  0  0  0  0  0  0  0  0  0
    5.2371    0.0924   -4.8268 H   0  0  0  0  0  0  0  0  0  0  0  0
    1.4765   -1.6863   -6.0342 H   0  0  0  0  0  0  0  0  0  0  0  0
    1.8716    3.9892    1.0656 H   0  0  0  0  0  0  0  0  0  0  0  0
    2.0163    2.4308    0.1442 H   0  0  0  0  0  0  0  0  0  0  0  0
    4.6929    1.0927    3.5041 H   0  0  0  0  0  0  0  0  0  0  0  0
   -1.9904    5.2371    2.9350 H   0  0  0  0  0  0  0  0  0  0  0  0
   -0.8793    3.8303    2.8075 H   0  0  0  0  0  0  0  0  0  0  0  0
    1.3947    4.1287    4.4217 H   0  0  0  0  0  0  0  0  0  0  0  0
   -7.1423    3.1368   -1.4301 H   0  0  0  0  0  0  0  0  0  0  0  0
   -7.5814    1.5675   -0.6864 H   0  0  0  0  0  0  0  0  0  0  0  0
  -11.0538    1.6770   -0.1665 H   0  0  0  0  0  0  0  0  0  0  0  0
   -7.8793   -1.0005   -1.7186 H   0  0  0  0  0  0  0  0  0  0  0  0
   -6.4274   -1.7767   -2.4062 H   0  0  0  0  0  0  0  0  0  0  0  0
   -7.3130   -5.5335   -1.2852 H   0  0  0  0  0  0  0  0  0  0  0  0
   -1.6769    0.7369    0.3806 H   0  0  0  0  0  0  0  0  0  0  0  0
   -0.2449    0.6319    1.3587 H   0  0  0  0  0  0  0  0  0  0  0  0
   -2.9509    0.2624    5.2052 H   0  0  0  0  0  0  0  0  0  0  0  0
    5.3286   -4.2606   -1.5210 H   0  0  0  0  0  0  0  0  0  0  0  0
    4.3390   -4.8858   -0.1715 H   0  0  0  0  0  0  0  0  0  0  0  0
    3.7841   -7.8607   -0.0866 H   0  0  0  0  0  0  0  0  0  0  0  0
    3.8045   -2.6625    2.3387 H   0  0  0  0  0  0  0  0  0  0  0  0
  1  2  2  0  0  0  0
  1  6  1  0  0  0  0
  1135  1  0  0  0  0
  2  3  1  0  0  0  0
  2136  1  0  0  0  0
  3  4  2  0  0  0  0
  3137  1  0  0  0  0
  4  5  1  0  0  0  0
  4  7  1  0  0  0  0
  5  6  2  0  0  0  0
  5138  1  0  0  0  0
  6139  1  0  0  0  0
  7  8  1  0  0  0  0
  7140  1  0  0  0  0
  7141  1  0  0  0  0
  8  9  1  0  0  0  0
  9 10  1  0  0  0  0
  9 14  1  0  0  0  0
  9142  1  1  0  0  0
 10 11  1  0  0  0  0
 10134  1  0  0  0  0
 10143  1  1  0  0  0
 11 12  1  0  0  0  0
 11 80  1  0  0  0  0
 11144  1  0  0  0  0
 12 13  1  0  0  0  0
 12128  1  0  0  0  0
 12145  1  6  0  0  0
 13 14  1  0  0  0  0
 14 15  1  0  0  0  0
 14146  1  0  0  0  0
 15 16  1  0  0  0  0
 16 17  1  0  0  0  0
 16 21  1  0  0  0  0
 16147  1  0  0  0  0
 17 18  1  0  0  0  0
 17122  1  0  0  0  0
 17148  1  1  0  0  0
 18 19  1  0  0  0  0
 19 20  1  0  0  0  0
 19 31  1  0  0  0  0
 19149  1  0  0  0  0
 20 21  1  0  0  0  0
 20 23  1  0  0  0  0
 20150  1  6  0  0  0
 21 22  1  0  0  0  0
 21151  1  6  0  0  0
 22152  1  0  0  0  0
 23 24  1  0  0  0  0
 24 25  1  0  0  0  0
 24153  1  0  0  0  0
 24154  1  0  0  0  0
 25 26  2  0  0  0  0
 25 30  1  0  0  0  0
 26 27  1  0  0  0  0
 26155  1  0  0  0  0
 27 28  2  0  0  0  0
 27156  1  0  0  0  0
 28 29  1  0  0  0  0
 28157  1  0  0  0  0
 29 30  2  0  0  0  0
 29158  1  0  0  0  0
 30159  1  0  0  0  0
 31 32  1  0  0  0  0
 32 33  1  0  0  0  0
 32 37  1  0  0  0  0
 32160  1  0  0  0  0
 33 34  1  0  0  0  0
 33116  1  0  0  0  0
 33161  1  6  0  0  0
 34 35  1  0  0  0  0
 35 36  1  0  0  0  0
 35 48  1  0  0  0  0
 35162  1  1  0  0  0
 36 37  1  0  0  0  0
 36 43  1  0  0  0  0
 36163  1  1  0  0  0
 37 38  1  0  0  0  0
 37164  1  6  0  0  0
 38 39  1  0  0  0  0
 39 40  2  0  0  0  0
 39 41  2  0  0  0  0
 39 42  1  0  0  0  0
 42165  1  0  0  0  0
 43 44  1  0  0  0  0
 44 45  2  0  0  0  0
 44 46  2  0  0  0  0
 44 47  1  0  0  0  0
 47166  1  0  0  0  0
 48 49  1  0  0  0  0
 49 50  1  0  0  0  0
 49 54  1  0  0  0  0
 49167  1  0  0  0  0
 50 51  1  0  0  0  0
 50110  1  0  0  0  0
 50168  1  6  0  0  0
 51 52  1  0  0  0  0
 52 53  1  0  0  0  0
 52 57  1  0  0  0  0
 52169  1  0  0  0  0
 53 54  1  0  0  0  0
 53 56  1  0  0  0  0
 53170  1  0  0  0  0
 54 55  1  0  0  0  0
 54171  1  1  0  0  0
 55172  1  0  0  0  0
 56173  1  0  0  0  0
 57 58  1  0  0  0  0
 58 59  1  0  0  0  0
 58 63  1  0  0  0  0
 58174  1  0  0  0  0
 59 60  1  0  0  0  0
 59104  1  0  0  0  0
 59175  1  6  0  0  0
 60 61  1  0  0  0  0
 61 62  1  0  0  0  0
 61 66  1  0  0  0  0
 61176  1  0  0  0  0
 62 63  1  0  0  0  0
 62 65  1  0  0  0  0
 62177  1  0  0  0  0
 63 64  1  0  0  0  0
 63178  1  6  0  0  0
 64179  1  0  0  0  0
 65180  1  0  0  0  0
 66 67  1  0  0  0  0
 67 68  1  0  0  0  0
 67 72  1  0  0  0  0
 67181  1  0  0  0  0
 68 69  1  0  0  0  0
 68 98  1  0  0  0  0
 68182  1  1  0  0  0
 69 70  1  0  0  0  0
 70 71  1  0  0  0  0
 70 75  1  0  0  0  0
 70183  1  0  0  0  0
 71 72  1  0  0  0  0
 71 74  1  0  0  0  0
 71184  1  0  0  0  0
 72 73  1  0  0  0  0
 72185  1  1  0  0  0
 73186  1  0  0  0  0
 74187  1  0  0  0  0
 75 76  1  0  0  0  0
 76 77  1  0  0  0  0
 76 82  1  0  0  0  0
 76188  1  0  0  0  0
 77 78  1  0  0  0  0
 77 92  1  0  0  0  0
 77189  1  6  0  0  0
 78 79  1  0  0  0  0
 79 80  1  0  0  0  0
 79 81  1  0  0  0  0
 79190  1  0  0  0  0
 81 82  1  0  0  0  0
 81 84  1  0  0  0  0
 81191  1  6  0  0  0
 82 83  1  0  0  0  0
 82192  1  1  0  0  0
 83193  1  0  0  0  0
 84 85  1  0  0  0  0
 85 86  1  0  0  0  0
 85194  1  0  0  0  0
 85195  1  0  0  0  0
 86 87  2  0  0  0  0
 86 91  1  0  0  0  0
 87 88  1  0  0  0  0
 87196  1  0  0  0  0
 88 89  2  0  0  0  0
 88197  1  0  0  0  0
 89 90  1  0  0  0  0
 89198  1  0  0  0  0
 90 91  2  0  0  0  0
 90199  1  0  0  0  0
 91200  1  0  0  0  0
 92 93  1  0  0  0  0
 92201  1  0  0  0  0
 92202  1  0  0  0  0
 93 94  1  0  0  0  0
 94 95  2  0  0  0  0
 94 96  2  0  0  0  0
 94 97  1  0  0  0  0
 97203  1  0  0  0  0
 98 99  1  0  0  0  0
 98204  1  0  0  0  0
 98205  1  0  0  0  0
 99100  1  0  0  0  0
100101  2  0  0  0  0
100102  2  0  0  0  0
100103  1  0  0  0  0
103206  1  0  0  0  0
104105  1  0  0  0  0
104207  1  0  0  0  0
104208  1  0  0  0  0
105106  1  0  0  0  0
106107  2  0  0  0  0
106108  2  0  0  0  0
106109  1  0  0  0  0
109209  1  0  0  0  0
110111  1  0  0  0  0
110210  1  0  0  0  0
110211  1  0  0  0  0
111112  1  0  0  0  0
112113  2  0  0  0  0
112114  2  0  0  0  0
112115  1  0  0  0  0
115212  1  0  0  0  0
116117  1  0  0  0  0
116213  1  0  0  0  0
116214  1  0  0  0  0
117118  1  0  0  0  0
118119  2  0  0  0  0
118120  2  0  0  0  0
118121  1  0  0  0  0
121215  1  0  0  0  0
122123  1  0  0  0  0
122216  1  0  0  0  0
122217  1  0  0  0  0
123124  1  0  0  0  0
124125  2  0  0  0  0
124126  2  0  0  0  0
124127  1  0  0  0  0
127218  1  0  0  0  0
128129  1  0  0  0  0
128219  1  0  0  0  0
128220  1  0  0  0  0
129130  1  0  0  0  0
130131  2  0  0  0  0
130132  2  0  0  0  0
130133  1  0  0  0  0
133221  1  0  0  0  0
134222  1  0  0  0  0
M  END
