
 OpenBabel10072620043D

 62 64  0  0  1  0  0  0  0  0999 V2000
  -10.4675    2.6869   -8.2124 C   0  0  0  0  0  0  0  0  0  0  0  0
   -9.7084    2.2859   -6.9788 C   0  0  0  0  0  0  0  0  0  0  0  0
   -8.7303    3.1223   -6.4237 C   0  0  0  0  0  0  0  0  0  0  0  0
   -8.0383    2.7395   -5.2686 C   0  0  0  0  0  0  0  0  0  0  0  0
   -8.3272    1.5129   -4.6637 C   0  0  0  0  0  0  0  0  0  0  0  0
   -9.2860    0.6589   -5.2195 C   0  0  0  0  0  0  0  0  0  0  0  0
   -9.9752    1.0507   -6.3711 C   0  0  0  0  0  0  0  0  0  0  0  0
   -7.4925    1.0506   -3.1536 S   0  0  0  0  0  0  0  0  0  0  0  0
   -8.0394   -0.2183   -2.7130 O   0  0  0  0  0  0  0  0  0  0  0  0
   -6.0749    1.2173   -3.3703 O   0  0  0  0  0  0  0  0  0  0  0  0
   -7.9875    2.2434   -2.0047 N   0  0  0  0  0  0  0  0  0  0  0  0
   -9.4664    2.4178   -1.9297 C   0  0  0  0  0  0  0  0  0  0  0  0
   -7.4557    1.9977   -0.6108 C   0  0  0  0  0  0  0  0  0  0  0  0
   -5.9455    2.2258   -0.3805 C   0  0  3  0  0  0  0  0  0  0  0  0
   -5.4984    3.6557   -0.7500 C   0  0  0  0  0  0  0  0  0  0  0  0
   -4.0060    3.8553   -0.7243 N   0  0  0  0  0  0  0  0  0  0  0  0
   -3.3117    3.7239    0.5330 C   0  0  0  0  0  0  0  0  0  0  0  0
   -3.5334    4.6266    1.5823 C   0  0  0  0  0  0  0  0  0  0  0  0
   -2.8473    4.4940    2.7951 C   0  0  0  0  0  0  0  0  0  0  0  0
   -1.9430    3.4490    2.9640 C   0  0  0  0  0  0  0  0  0  0  0  0
   -1.7017    2.5585    1.9150 C   0  0  0  0  0  0  0  0  0  0  0  0
   -2.3574    2.7099    0.6892 C   0  0  0  0  0  0  0  0  0  0  0  0
   -2.1504    1.8314   -0.3439 O   0  0  0  0  0  0  0  0  0  0  0  0
   -0.7723    1.7553   -0.7047 C   0  0  0  0  0  0  0  0  0  0  0  0
   -3.4227    5.1382   -1.7080 S   0  0  0  0  0  0  0  0  0  0  0  0
   -4.5032    6.0801   -1.9186 O   0  0  0  0  0  0  0  0  0  0  0  0
   -2.1324    5.5972   -1.2232 O   0  0  0  0  0  0  0  0  0  0  0  0
   -3.1199    4.3131   -3.2599 C   0  0  0  0  0  0  0  0  0  0  0  0
   -4.1439    4.1720   -4.2022 C   0  0  0  0  0  0  0  0  0  0  0  0
   -3.8737    3.5269   -5.4121 C   0  0  0  0  0  0  0  0  0  0  0  0
   -2.5895    3.0456   -5.6830 C   0  0  0  0  0  0  0  0  0  0  0  0
   -1.5605    3.2376   -4.7601 C   0  0  0  0  0  0  0  0  0  0  0  0
   -1.8209    3.8798   -3.5503 C   0  0  0  0  0  0  0  0  0  0  0  0
   -5.7442    1.9906    1.0298 O   0  0  0  0  0  0  0  0  0  0  0  0
  -10.1896    3.6890   -8.5570 H   0  0  0  0  0  0  0  0  0  0  0  0
  -11.5439    2.6917   -8.0083 H   0  0  0  0  0  0  0  0  0  0  0  0
  -10.2600    1.9823   -9.0241 H   0  0  0  0  0  0  0  0  0  0  0  0
   -8.5055    4.0808   -6.8875 H   0  0  0  0  0  0  0  0  0  0  0  0
   -7.2913    3.4025   -4.8415 H   0  0  0  0  0  0  0  0  0  0  0  0
   -9.5095   -0.3041   -4.7636 H   0  0  0  0  0  0  0  0  0  0  0  0
  -10.7277    0.3888   -6.7962 H   0  0  0  0  0  0  0  0  0  0  0  0
   -9.8838    2.7027   -2.8967 H   0  0  0  0  0  0  0  0  0  0  0  0
   -9.7092    3.2362   -1.2443 H   0  0  0  0  0  0  0  0  0  0  0  0
   -9.9570    1.5085   -1.5722 H   0  0  0  0  0  0  0  0  0  0  0  0
   -7.7209    0.9770   -0.2999 H   0  0  0  0  0  0  0  0  0  0  0  0
   -8.0035    2.6489    0.0866 H   0  0  0  0  0  0  0  0  0  0  0  0
   -5.3621    1.4745   -0.9172 H   0  0  0  0  0  0  0  0  0  0  0  0
   -5.9661    4.3773   -0.0697 H   0  0  0  0  0  0  0  0  0  0  0  0
   -5.8505    3.8717   -1.7618 H   0  0  0  0  0  0  0  0  0  0  0  0
   -4.2203    5.4573    1.4547 H   0  0  0  0  0  0  0  0  0  0  0  0
   -3.0226    5.1985    3.6077 H   0  0  0  0  0  0  0  0  0  0  0  0
   -1.4239    3.3190    3.9117 H   0  0  0  0  0  0  0  0  0  0  0  0
   -1.0035    1.7434    2.0726 H   0  0  0  0  0  0  0  0  0  0  0  0
   -0.1983    1.1915    0.0375 H   0  0  0  0  0  0  0  0  0  0  0  0
   -0.3330    2.7507   -0.8423 H   0  0  0  0  0  0  0  0  0  0  0  0
   -0.7175    1.2202   -1.6561 H   0  0  0  0  0  0  0  0  0  0  0  0
   -5.1452    4.5438   -3.9981 H   0  0  0  0  0  0  0  0  0  0  0  0
   -4.6649    3.3908   -6.1456 H   0  0  0  0  0  0  0  0  0  0  0  0
   -2.3902    2.5300   -6.6209 H   0  0  0  0  0  0  0  0  0  0  0  0
   -0.5555    2.8880   -4.9824 H   0  0  0  0  0  0  0  0  0  0  0  0
   -1.0122    4.0409   -2.8406 H   0  0  0  0  0  0  0  0  0  0  0  0
   -4.7959    1.8010    1.1508 H   0  0  0  0  0  0  0  0  0  0  0  0
  1  2  1  0  0  0  0
  1 35  1  0  0  0  0
  1 36  1  0  0  0  0
  1 37  1  0  0  0  0
  2  3  2  0  0  0  0
  2  7  1  0  0  0  0
  3  4  1  0  0  0  0
  3 38  1  0  0  0  0
  4  5  2  0  0  0  0
  4 39  1  0  0  0  0
  5  6  1  0  0  0  0
  5  8  1  0  0  0  0
  6  7  2  0  0  0  0
  6 40  1  0  0  0  0
  7 41  1  0  0  0  0
  8  9  2  0  0  0  0
  8 10  2  0  0  0  0
  8 11  1  0  0  0  0
 11 12  1  0  0  0  0
 11 13  1  0  0  0  0
 12 42  1  0  0  0  0
 12 43  1  0  0  0  0
 12 44  1  0  0  0  0
 13 14  1  0  0  0  0
 13 45  1  0  0  0  0
 13 46  1  0  0  0  0
 14 15  1  0  0  0  0
 14 34  1  0  0  0  0
 14 47  1  0  0  0  0
 15 16  1  0  0  0  0
 15 48  1  0  0  0  0
 15 49  1  0  0  0  0
 16 17  1  0  0  0  0
 16 25  1  0  0  0  0
 17 18  2  0  0  0  0
 17 22  1  0  0  0  0
 18 19  1  0  0  0  0
 18 50  1  0  0  0  0
 19 20  2  0  0  0  0
 19 51  1  0  0  0  0
 20 21  1  0  0  0  0
 20 52  1  0  0  0  0
 21 22  2  0  0  0  0
 21 53  1  0  0  0  0
 22 23  1  0  0  0  0
 23 24  1  0  0  0  0
 24 54  1  0  0  0  0
 24 55  1  0  0  0  0
 24 56  1  0  0  0  0
 25 26  2  0  0  0  0
 25 27  2  0  0  0  0
 25 28  1  0  0  0  0
 28 29  2  0  0  0  0
 28 33  1  0  0  0  0
 29 30  1  0  0  0  0
 29 57  1  0  0  0  0
 30 31  2  0  0  0  0
 30 58  1  0  0  0  0
 31 32  1  0  0  0  0
 31 59  1  0  0  0  0
 32 33  2  0  0  0  0
 32 60  1  0  0  0  0
 33 61  1  0  0  0  0
 34 62  1  0  0  0  0
M  END
