
 OpenBabel10072620103D

 35 36  0  0  0  0  0  0  0  0999 V2000
    2.6434   -0.8017    0.1553 C   0  0  0  0  0  0  0  0  0  0  0  0
    1.1718   -0.4996    0.0960 C   0  0  0  0  0  0  0  0  0  0  0  0
    0.6733    0.7423    0.5285 C   0  0  0  0  0  0  0  0  0  0  0  0
   -0.7047    0.9773    0.5056 C   0  0  0  0  0  0  0  0  0  0  0  0
   -1.5865   -0.0145    0.0558 C   0  0  0  0  0  0  0  0  0  0  0  0
   -1.0894   -1.2411   -0.3862 C   0  0  0  0  0  0  0  0  0  0  0  0
    0.2831   -1.4811   -0.3666 C   0  0  0  0  0  0  0  0  0  0  0  0
   -3.0278    0.2385    0.0701 C   0  0  0  0  0  0  0  0  0  0  0  0
   -3.8790   -0.1697    1.0244 C   0  0  0  0  0  0  0  0  0  0  0  0
   -3.4801   -0.9520    2.2203 C   0  0  0  0  0  0  0  0  0  0  0  0
   -2.4052   -0.7375    2.9084 N   0  0  0  0  0  0  0  0  0  0  0  0
   -2.1617   -1.5597    3.9796 C   0  0  0  0  0  0  0  0  0  0  0  0
   -2.9977   -2.5296    4.3644 C   0  0  0  0  0  0  0  0  0  0  0  0
   -4.2355   -2.7558    3.6296 C   0  0  0  0  0  0  0  0  0  0  0  0
   -5.0820   -3.5907    3.9196 O   0  0  0  0  0  0  0  0  0  0  0  0
   -4.3942   -1.9245    2.5462 N   0  0  0  0  0  0  0  0  0  0  0  0
   -2.6936   -3.3375    5.4882 N   0  3  0  0  0  0  0  0  0  0  0  0
   -3.0441   -2.9137    6.5985 O   0  0  0  0  0  0  0  0  0  0  0  0
   -2.1305   -4.4188    5.2694 O   0  5  0  0  0  0  0  0  0  0  0  0
   -0.9738   -1.3034    4.6153 O   0  0  0  0  0  0  0  0  0  0  0  0
    1.6128    1.6413    0.9626 O   0  0  0  0  0  0  0  0  0  0  0  0
    1.1602    2.9521    1.2754 C   0  0  0  0  0  0  0  0  0  0  0  0
    3.2190   -0.0191   -0.3506 H   0  0  0  0  0  0  0  0  0  0  0  0
    2.8759   -1.7513   -0.3392 H   0  0  0  0  0  0  0  0  0  0  0  0
    2.9630   -0.8766    1.2002 H   0  0  0  0  0  0  0  0  0  0  0  0
   -1.1207    1.9172    0.8547 H   0  0  0  0  0  0  0  0  0  0  0  0
   -1.7631   -2.0199   -0.7342 H   0  0  0  0  0  0  0  0  0  0  0  0
    0.6566   -2.4447   -0.7052 H   0  0  0  0  0  0  0  0  0  0  0  0
   -3.4016    0.8054   -0.7797 H   0  0  0  0  0  0  0  0  0  0  0  0
   -4.9316    0.0793    0.9394 H   0  0  0  0  0  0  0  0  0  0  0  0
   -5.2325   -2.0708    2.0009 H   0  0  0  0  0  0  0  0  0  0  0  0
   -0.5789   -0.5979    4.0656 H   0  0  0  0  0  0  0  0  0  0  0  0
    0.5316    2.9414    2.1717 H   0  0  0  0  0  0  0  0  0  0  0  0
    0.6355    3.4067    0.4282 H   0  0  0  0  0  0  0  0  0  0  0  0
    2.0391    3.5680    1.4887 H   0  0  0  0  0  0  0  0  0  0  0  0
  1  2  1  0  0  0  0
  1 23  1  0  0  0  0
  1 24  1  0  0  0  0
  1 25  1  0  0  0  0
  2  3  2  0  0  0  0
  2  7  1  0  0  0  0
  3  4  1  0  0  0  0
  3 21  1  0  0  0  0
  4  5  2  0  0  0  0
  4 26  1  0  0  0  0
  5  6  1  0  0  0  0
  5  8  1  0  0  0  0
  6  7  2  0  0  0  0
  6 27  1  0  0  0  0
  7 28  1  0  0  0  0
  8  9  2  0  0  0  0
  8 29  1  0  0  0  0
  9 10  1  0  0  0  0
  9 30  1  0  0  0  0
 10 11  2  0  0  0  0
 10 16  1  0  0  0  0
 11 12  1  0  0  0  0
 12 13  2  0  0  0  0
 12 20  1  0  0  0  0
 13 14  1  0  0  0  0
 13 17  1  0  0  0  0
 14 15  2  0  0  0  0
 14 16  1  0  0  0  0
 16 31  1  0  0  0  0
 17 18  2  0  0  0  0
 17 19  1  0  0  0  0
 20 32  1  0  0  0  0
 21 22  1  0  0  0  0
 22 33  1  0  0  0  0
 22 34  1  0  0  0  0
 22 35  1  0  0  0  0
M  CHG  2  17   1  19  -1
M  END
