
 OpenBabel10072620113D

 51 51  0  0  0  0  0  0  0  0999 V2000
    8.5976    5.4782   -3.7691 C   0  0  0  0  0  0  0  0  0  0  0  0
    8.2201    4.1960   -3.0448 C   0  0  0  0  0  0  0  0  0  0  0  0
    8.6868    2.9580   -3.8106 C   0  0  0  0  0  0  0  0  0  0  0  0
    8.3357    1.6746   -3.0557 C   0  0  0  0  0  0  0  0  0  0  0  0
    8.8346    0.4344   -3.7989 C   0  0  0  0  0  0  0  0  0  0  0  0
    8.4964   -0.8459   -3.0335 C   0  0  0  0  0  0  0  0  0  0  0  0
    9.0297   -2.0844   -3.7558 C   0  0  0  0  0  0  0  0  0  0  0  0
    8.6929   -3.3619   -2.9841 C   0  0  0  0  0  0  0  0  0  0  0  0
    9.1305   -4.6369   -3.7075 C   0  0  0  0  0  0  0  0  0  0  0  0
   10.6458   -4.7796   -3.8053 C   0  0  0  0  0  0  0  0  0  0  0  0
   11.0980   -6.3345   -4.5686 S   0  0  0  0  0  0  0  0  0  0  0  0
   10.6949   -7.4029   -3.6774 O   0  0  0  0  0  0  0  0  0  0  0  0
   10.6993   -6.3125   -5.9568 O   0  0  0  0  0  0  0  0  0  0  0  0
   12.7870   -6.2668   -4.4338 N   0  0  0  0  0  0  0  0  0  0  0  0
   13.5315   -6.0652   -5.6328 C   0  0  0  0  0  0  0  0  0  0  0  0
   13.6511   -4.7877   -6.1766 C   0  0  0  0  0  0  0  0  0  0  0  0
   14.3615   -4.5969   -7.3668 C   0  0  0  0  0  0  0  0  0  0  0  0
   14.9451   -5.6847   -8.0182 C   0  0  0  0  0  0  0  0  0  0  0  0
   14.8024   -6.9645   -7.4742 C   0  0  0  0  0  0  0  0  0  0  0  0
   14.0918   -7.1594   -6.2878 C   0  0  0  0  0  0  0  0  0  0  0  0
   15.6671   -5.6346   -9.1781 O   0  0  0  0  0  0  0  0  0  0  0  0
   15.8451   -4.3530   -9.7682 C   0  0  0  0  0  0  0  0  0  0  0  0
    8.2600    6.3492   -3.1985 H   0  0  0  0  0  0  0  0  0  0  0  0
    8.1349    5.5215   -4.7600 H   0  0  0  0  0  0  0  0  0  0  0  0
    9.6827    5.5536   -3.8926 H   0  0  0  0  0  0  0  0  0  0  0  0
    7.1325    4.1639   -2.9122 H   0  0  0  0  0  0  0  0  0  0  0  0
    8.6684    4.2058   -2.0446 H   0  0  0  0  0  0  0  0  0  0  0  0
    9.7715    3.0097   -3.9643 H   0  0  0  0  0  0  0  0  0  0  0  0
    8.2206    2.9416   -4.8033 H   0  0  0  0  0  0  0  0  0  0  0  0
    7.2488    1.6124   -2.9225 H   0  0  0  0  0  0  0  0  0  0  0  0
    8.7829    1.7056   -2.0546 H   0  0  0  0  0  0  0  0  0  0  0  0
    9.9203    0.5028   -3.9381 H   0  0  0  0  0  0  0  0  0  0  0  0
    8.3815    0.3965   -4.7970 H   0  0  0  0  0  0  0  0  0  0  0  0
    7.4091   -0.9265   -2.9169 H   0  0  0  0  0  0  0  0  0  0  0  0
    8.9262   -0.7976   -2.0258 H   0  0  0  0  0  0  0  0  0  0  0  0
   10.1148   -1.9905   -3.8732 H   0  0  0  0  0  0  0  0  0  0  0  0
    8.5978   -2.1374   -4.7621 H   0  0  0  0  0  0  0  0  0  0  0  0
    7.6078   -3.4108   -2.8303 H   0  0  0  0  0  0  0  0  0  0  0  0
    9.1521   -3.3274   -1.9886 H   0  0  0  0  0  0  0  0  0  0  0  0
    8.6856   -4.6666   -4.7095 H   0  0  0  0  0  0  0  0  0  0  0  0
    8.7211   -5.4973   -3.1639 H   0  0  0  0  0  0  0  0  0  0  0  0
   11.1008   -4.7601   -2.8101 H   0  0  0  0  0  0  0  0  0  0  0  0
   11.0765   -3.9853   -4.4202 H   0  0  0  0  0  0  0  0  0  0  0  0
   13.0946   -7.0627   -3.8713 H   0  0  0  0  0  0  0  0  0  0  0  0
   13.2069   -3.9310   -5.6800 H   0  0  0  0  0  0  0  0  0  0  0  0
   14.4381   -3.5881   -7.7581 H   0  0  0  0  0  0  0  0  0  0  0  0
   15.2433   -7.8177   -7.9838 H   0  0  0  0  0  0  0  0  0  0  0  0
   13.9784   -8.1654   -5.8948 H   0  0  0  0  0  0  0  0  0  0  0  0
   16.4443   -4.4819  -10.6744 H   0  0  0  0  0  0  0  0  0  0  0  0
   16.3945   -3.6833   -9.0982 H   0  0  0  0  0  0  0  0  0  0  0  0
   14.8844   -3.9179  -10.0628 H   0  0  0  0  0  0  0  0  0  0  0  0
  1  2  1  0  0  0  0
  1 23  1  0  0  0  0
  1 24  1  0  0  0  0
  1 25  1  0  0  0  0
  2  3  1  0  0  0  0
  2 26  1  0  0  0  0
  2 27  1  0  0  0  0
  3  4  1  0  0  0  0
  3 28  1  0  0  0  0
  3 29  1  0  0  0  0
  4  5  1  0  0  0  0
  4 30  1  0  0  0  0
  4 31  1  0  0  0  0
  5  6  1  0  0  0  0
  5 32  1  0  0  0  0
  5 33  1  0  0  0  0
  6  7  1  0  0  0  0
  6 34  1  0  0  0  0
  6 35  1  0  0  0  0
  7  8  1  0  0  0  0
  7 36  1  0  0  0  0
  7 37  1  0  0  0  0
  8  9  1  0  0  0  0
  8 38  1  0  0  0  0
  8 39  1  0  0  0  0
  9 10  1  0  0  0  0
  9 40  1  0  0  0  0
  9 41  1  0  0  0  0
 10 11  1  0  0  0  0
 10 42  1  0  0  0  0
 10 43  1  0  0  0  0
 11 12  2  0  0  0  0
 11 13  2  0  0  0  0
 11 14  1  0  0  0  0
 14 15  1  0  0  0  0
 14 44  1  0  0  0  0
 15 16  2  0  0  0  0
 15 20  1  0  0  0  0
 16 17  1  0  0  0  0
 16 45  1  0  0  0  0
 17 18  2  0  0  0  0
 17 46  1  0  0  0  0
 18 19  1  0  0  0  0
 18 21  1  0  0  0  0
 19 20  2  0  0  0  0
 19 47  1  0  0  0  0
 20 48  1  0  0  0  0
 21 22  1  0  0  0  0
 22 49  1  0  0  0  0
 22 50  1  0  0  0  0
 22 51  1  0  0  0  0
M  END
