
 OpenBabel10072619483D

 43 42  0  0  0  0  0  0  0  0999 V2000
    6.8694   -2.4424   -0.9547 C   0  0  0  0  0  0  0  0  0  0  0  0
    6.8238   -1.2356   -0.0323 C   0  0  0  0  0  0  0  0  0  0  0  0
    7.3682   -1.5459    1.3228 N   0  0  0  0  0  0  0  0  0  0  0  0
    8.7972   -1.9901    1.3414 C   0  0  0  0  0  0  0  0  0  0  0  0
    9.7762   -0.9063    0.9216 C   0  0  0  0  0  0  0  0  0  0  0  0
    6.9473   -0.4080    2.5564 S   0  0  0  0  0  0  0  0  0  0  0  0
    7.6725   -0.8104    3.7475 O   0  0  0  0  0  0  0  0  0  0  0  0
    7.1693    0.9022    1.9750 O   0  0  0  0  0  0  0  0  0  0  0  0
    5.1547   -0.6891    2.8284 C   0  0  0  0  0  0  0  0  0  0  0  0
    4.7161    0.1695    3.9947 C   0  0  0  0  0  0  0  0  0  0  0  0
    3.2041    0.2153    4.1717 C   0  0  0  0  0  0  0  0  0  0  0  0
    2.4661   -1.0854    4.4593 C   0  0  0  0  0  0  0  0  0  0  0  0
    2.8739   -1.8483    5.7123 C   0  0  0  0  0  0  0  0  0  0  0  0
    2.7633   -1.1355    7.0551 C   0  0  0  0  0  0  0  0  0  0  0  0
    1.3614   -0.6996    7.4146 C   0  0  0  0  0  0  0  0  0  0  0  0
    1.3408   -0.1141    8.8134 C   0  0  0  0  0  0  0  0  0  0  0  0
    2.1541    0.9623    8.9238 F   0  0  0  0  0  0  0  0  0  0  0  0
    0.0938    0.3021    9.1492 F   0  0  0  0  0  0  0  0  0  0  0  0
    1.7214   -1.0052    9.7564 F   0  0  0  0  0  0  0  0  0  0  0  0
    0.9186    0.2316    6.5256 F   0  0  0  0  0  0  0  0  0  0  0  0
    0.4999   -1.7493    7.3193 F   0  0  0  0  0  0  0  0  0  0  0  0
    3.2322   -1.9852    8.0187 F   0  0  0  0  0  0  0  0  0  0  0  0
    3.6133   -0.0759    7.0767 F   0  0  0  0  0  0  0  0  0  0  0  0
    2.1414   -3.0035    5.7727 F   0  0  0  0  0  0  0  0  0  0  0  0
    4.1647   -2.2701    5.5438 F   0  0  0  0  0  0  0  0  0  0  0  0
    1.1243   -0.8320    4.5188 F   0  0  0  0  0  0  0  0  0  0  0  0
    2.5955   -1.9073    3.3752 F   0  0  0  0  0  0  0  0  0  0  0  0
    2.9110    1.0964    5.1781 F   0  0  0  0  0  0  0  0  0  0  0  0
    2.6522    0.7820    3.0531 F   0  0  0  0  0  0  0  0  0  0  0  0
    5.2897   -0.2370    5.1563 F   0  0  0  0  0  0  0  0  0  0  0  0
    5.1368    1.4578    3.8155 F   0  0  0  0  0  0  0  0  0  0  0  0
    4.4254   -0.3750    1.7165 F   0  0  0  0  0  0  0  0  0  0  0  0
    4.8951   -2.0041    3.0819 F   0  0  0  0  0  0  0  0  0  0  0  0
    6.2962   -2.2429   -1.8655 H   0  0  0  0  0  0  0  0  0  0  0  0
    6.4501   -3.3299   -0.4716 H   0  0  0  0  0  0  0  0  0  0  0  0
    7.8926   -2.6740   -1.2643 H   0  0  0  0  0  0  0  0  0  0  0  0
    5.7769   -0.9390    0.0537 H   0  0  0  0  0  0  0  0  0  0  0  0
    7.3613   -0.3963   -0.4828 H   0  0  0  0  0  0  0  0  0  0  0  0
    8.9135   -2.8637    0.6909 H   0  0  0  0  0  0  0  0  0  0  0  0
    9.0493   -2.3556    2.3432 H   0  0  0  0  0  0  0  0  0  0  0  0
    9.5791   -0.5501   -0.0940 H   0  0  0  0  0  0  0  0  0  0  0  0
   10.7974   -1.3011    0.9390 H   0  0  0  0  0  0  0  0  0  0  0  0
    9.7409   -0.0457    1.5962 H   0  0  0  0  0  0  0  0  0  0  0  0
  1  2  1  0  0  0  0
  1 34  1  0  0  0  0
  1 35  1  0  0  0  0
  1 36  1  0  0  0  0
  2  3  1  0  0  0  0
  2 37  1  0  0  0  0
  2 38  1  0  0  0  0
  3  4  1  0  0  0  0
  3  6  1  0  0  0  0
  4  5  1  0  0  0  0
  4 39  1  0  0  0  0
  4 40  1  0  0  0  0
  5 41  1  0  0  0  0
  5 42  1  0  0  0  0
  5 43  1  0  0  0  0
  6  7  2  0  0  0  0
  6  8  2  0  0  0  0
  6  9  1  0  0  0  0
  9 10  1  0  0  0  0
  9 32  1  0  0  0  0
  9 33  1  0  0  0  0
 10 11  1  0  0  0  0
 10 30  1  0  0  0  0
 10 31  1  0  0  0  0
 11 12  1  0  0  0  0
 11 28  1  0  0  0  0
 11 29  1  0  0  0  0
 12 13  1  0  0  0  0
 12 26  1  0  0  0  0
 12 27  1  0  0  0  0
 13 14  1  0  0  0  0
 13 24  1  0  0  0  0
 13 25  1  0  0  0  0
 14 15  1  0  0  0  0
 14 22  1  0  0  0  0
 14 23  1  0  0  0  0
 15 16  1  0  0  0  0
 15 20  1  0  0  0  0
 15 21  1  0  0  0  0
 16 17  1  0  0  0  0
 16 18  1  0  0  0  0
 16 19  1  0  0  0  0
M  END
