
 OpenBabel10072619523D

 39 41  0  0  0  0  0  0  0  0999 V2000
    0.9459    2.1173   -4.6294 C   0  0  0  0  0  0  0  0  0  0  0  0
    0.1874    3.1797   -4.1323 C   0  0  0  0  0  0  0  0  0  0  0  0
    0.1093    3.4014   -2.7557 C   0  0  0  0  0  0  0  0  0  0  0  0
    0.7941    2.5491   -1.8837 C   0  0  0  0  0  0  0  0  0  0  0  0
    1.5428    1.4895   -2.3790 C   0  0  0  0  0  0  0  0  0  0  0  0
    1.6266    1.2714   -3.7515 C   0  0  0  0  0  0  0  0  0  0  0  0
    2.2272    0.6808   -1.5572 F   0  0  0  0  0  0  0  0  0  0  0  0
    0.7300    2.8140   -0.1437 S   0  0  0  0  0  0  0  0  0  0  0  0
    0.2196    4.1494    0.0787 O   0  0  0  0  0  0  0  0  0  0  0  0
    0.1122    1.6513    0.4497 O   0  0  0  0  0  0  0  0  0  0  0  0
    2.3481    2.8154    0.3257 N   0  0  0  0  0  0  0  0  0  0  0  0
    3.2425    3.8485   -0.2219 C   0  0  0  0  0  0  0  0  0  0  0  0
    4.6147    3.7522    0.4464 C   0  0  0  0  0  0  0  0  0  0  0  0
    5.6101    4.7600   -0.0406 C   0  0  0  0  0  0  0  0  0  0  0  0
    5.8164    5.1964   -1.3340 C   0  0  0  0  0  0  0  0  0  0  0  0
    7.1039    6.3224   -1.3813 S   0  0  0  0  0  0  0  0  0  0  0  0
    7.3473    6.1263    0.3137 C   0  0  0  0  0  0  0  0  0  0  0  0
    6.4884    5.3015    0.8854 N   0  0  0  0  0  0  0  0  0  0  0  0
    8.4299    6.8175    1.0467 C   0  0  0  0  0  0  0  0  0  0  0  0
    8.4631    6.7157    2.4504 C   0  0  0  0  0  0  0  0  0  0  0  0
    9.4790    7.3161    3.2019 C   0  0  0  0  0  0  0  0  0  0  0  0
   10.4827    8.0291    2.5565 C   0  0  0  0  0  0  0  0  0  0  0  0
   10.4720    8.1536    1.1701 C   0  0  0  0  0  0  0  0  0  0  0  0
    9.4516    7.5521    0.4205 C   0  0  0  0  0  0  0  0  0  0  0  0
   11.7446    8.7540    3.4728 Cl  0  0  0  0  0  0  0  0  0  0  0  0
    1.0024    1.9456   -5.7024 H   0  0  0  0  0  0  0  0  0  0  0  0
   -0.3441    3.8366   -4.8189 H   0  0  0  0  0  0  0  0  0  0  0  0
   -0.4874    4.2277   -2.3742 H   0  0  0  0  0  0  0  0  0  0  0  0
    2.2195    0.4439   -4.1302 H   0  0  0  0  0  0  0  0  0  0  0  0
    2.7094    1.8638    0.4159 H   0  0  0  0  0  0  0  0  0  0  0  0
    2.8142    4.8423   -0.0532 H   0  0  0  0  0  0  0  0  0  0  0  0
    3.3488    3.6964   -1.3009 H   0  0  0  0  0  0  0  0  0  0  0  0
    5.0330    2.7502    0.2862 H   0  0  0  0  0  0  0  0  0  0  0  0
    4.4926    3.8632    1.5315 H   0  0  0  0  0  0  0  0  0  0  0  0
    5.2932    4.9201   -2.2379 H   0  0  0  0  0  0  0  0  0  0  0  0
    7.6887    6.1537    2.9721 H   0  0  0  0  0  0  0  0  0  0  0  0
    9.4788    7.2147    4.2839 H   0  0  0  0  0  0  0  0  0  0  0  0
   11.2565    8.7095    0.6628 H   0  0  0  0  0  0  0  0  0  0  0  0
    9.4873    7.6636   -0.6603 H   0  0  0  0  0  0  0  0  0  0  0  0
  1  2  2  0  0  0  0
  1  6  1  0  0  0  0
  1 26  1  0  0  0  0
  2  3  1  0  0  0  0
  2 27  1  0  0  0  0
  3  4  2  0  0  0  0
  3 28  1  0  0  0  0
  4  5  1  0  0  0  0
  4  8  1  0  0  0  0
  5  6  2  0  0  0  0
  5  7  1  0  0  0  0
  6 29  1  0  0  0  0
  8  9  2  0  0  0  0
  8 10  2  0  0  0  0
  8 11  1  0  0  0  0
 11 12  1  0  0  0  0
 11 30  1  0  0  0  0
 12 13  1  0  0  0  0
 12 31  1  0  0  0  0
 12 32  1  0  0  0  0
 13 14  1  0  0  0  0
 13 33  1  0  0  0  0
 13 34  1  0  0  0  0
 14 15  2  0  0  0  0
 14 18  1  0  0  0  0
 15 16  1  0  0  0  0
 15 35  1  0  0  0  0
 16 17  1  0  0  0  0
 17 18  2  0  0  0  0
 17 19  1  0  0  0  0
 19 20  2  0  0  0  0
 19 24  1  0  0  0  0
 20 21  1  0  0  0  0
 20 36  1  0  0  0  0
 21 22  2  0  0  0  0
 21 37  1  0  0  0  0
 22 23  1  0  0  0  0
 22 25  1  0  0  0  0
 23 24  2  0  0  0  0
 23 38  1  0  0  0  0
 24 39  1  0  0  0  0
M  END
