
 OpenBabel10072619443D

 55 58  0  0  0  0  0  0  0  0999 V2000
   -3.9218   -5.2681   -2.9022 C   0  0  0  0  0  0  0  0  0  0  0  0
   -3.8303   -3.9012   -2.2900 C   0  0  0  0  0  0  0  0  0  0  0  0
   -4.2594   -2.7722   -2.9945 C   0  0  0  0  0  0  0  0  0  0  0  0
   -4.1358   -1.4937   -2.4383 C   0  0  0  0  0  0  0  0  0  0  0  0
   -3.5845   -1.3175   -1.1607 C   0  0  0  0  0  0  0  0  0  0  0  0
   -3.1312   -2.4534   -0.4717 C   0  0  0  0  0  0  0  0  0  0  0  0
   -3.2510   -3.7289   -1.0298 C   0  0  0  0  0  0  0  0  0  0  0  0
   -3.3664    0.0410   -0.5372 C   0  0  0  0  0  0  0  0  0  0  0  0
   -4.3773    1.0287   -0.8803 N   0  0  0  0  0  0  0  0  0  0  0  0
   -4.1779    2.0875   -1.7264 C   0  0  0  0  0  0  0  0  0  0  0  0
   -5.2272    2.8746   -1.7781 N   0  0  0  0  0  0  0  0  0  0  0  0
   -6.1458    2.2985   -0.9257 C   0  0  0  0  0  0  0  0  0  0  0  0
   -5.6359    1.1486   -0.3396 C   0  0  0  0  0  0  0  0  0  0  0  0
   -6.3696    0.3862    0.5751 C   0  0  0  0  0  0  0  0  0  0  0  0
   -7.6668    0.8316    0.9125 C   0  0  0  0  0  0  0  0  0  0  0  0
   -8.2047    2.0185    0.3518 C   0  0  0  0  0  0  0  0  0  0  0  0
   -7.4439    2.7394   -0.5921 C   0  0  0  0  0  0  0  0  0  0  0  0
   -7.9536    3.8916   -1.2854 N   0  0  0  0  0  0  0  0  0  0  0  0
   -8.7189    3.5668   -2.7716 S   0  0  0  0  0  0  0  0  0  0  0  0
   -8.3075    4.6107   -3.6847 O   0  0  0  0  0  0  0  0  0  0  0  0
   -8.6170    2.1634   -3.1112 O   0  0  0  0  0  0  0  0  0  0  0  0
  -10.4239    3.9103   -2.3868 C   0  0  0  0  0  0  0  0  0  0  0  0
  -10.7684    5.1649   -1.8753 C   0  0  0  0  0  0  0  0  0  0  0  0
  -12.1029    5.4479   -1.5890 C   0  0  0  0  0  0  0  0  0  0  0  0
  -13.0886    4.4870   -1.8269 C   0  0  0  0  0  0  0  0  0  0  0  0
  -12.7508    3.2257   -2.3457 C   0  0  0  0  0  0  0  0  0  0  0  0
  -11.4036    2.9414   -2.6232 C   0  0  0  0  0  0  0  0  0  0  0  0
  -13.8117    2.1931   -2.6396 C   0  0  0  0  0  0  0  0  0  0  0  0
  -15.0400    2.5210   -2.1504 F   0  0  0  0  0  0  0  0  0  0  0  0
  -13.9833    1.9914   -3.9746 F   0  0  0  0  0  0  0  0  0  0  0  0
  -13.5148    0.9748   -2.1093 F   0  0  0  0  0  0  0  0  0  0  0  0
   -9.5783    2.4893    0.7543 C   0  0  0  0  0  0  0  0  0  0  0  0
   -8.4450    0.0262    1.9241 C   0  0  0  0  0  0  0  0  0  0  0  0
   -4.7806   -5.3413   -3.5776 H   0  0  0  0  0  0  0  0  0  0  0  0
   -4.0520   -6.0331   -2.1291 H   0  0  0  0  0  0  0  0  0  0  0  0
   -3.0095   -5.4884   -3.4650 H   0  0  0  0  0  0  0  0  0  0  0  0
   -4.6915   -2.8770   -3.9882 H   0  0  0  0  0  0  0  0  0  0  0  0
   -4.4796   -0.6439   -3.0255 H   0  0  0  0  0  0  0  0  0  0  0  0
   -2.6687   -2.3554    0.5087 H   0  0  0  0  0  0  0  0  0  0  0  0
   -2.8815   -4.5884   -0.4748 H   0  0  0  0  0  0  0  0  0  0  0  0
   -2.3885    0.4301   -0.8453 H   0  0  0  0  0  0  0  0  0  0  0  0
   -3.3671   -0.0288    0.5578 H   0  0  0  0  0  0  0  0  0  0  0  0
   -3.2548    2.2383   -2.2728 H   0  0  0  0  0  0  0  0  0  0  0  0
   -5.9564   -0.5199    1.0078 H   0  0  0  0  0  0  0  0  0  0  0  0
   -7.1915    4.5413   -1.5113 H   0  0  0  0  0  0  0  0  0  0  0  0
  -10.0052    5.9206   -1.7035 H   0  0  0  0  0  0  0  0  0  0  0  0
  -12.3785    6.4215   -1.1898 H   0  0  0  0  0  0  0  0  0  0  0  0
  -14.1291    4.7313   -1.6133 H   0  0  0  0  0  0  0  0  0  0  0  0
  -11.1278    1.9697   -3.0329 H   0  0  0  0  0  0  0  0  0  0  0  0
   -9.7183    2.3981    1.8366 H   0  0  0  0  0  0  0  0  0  0  0  0
  -10.3438    1.8983    0.2426 H   0  0  0  0  0  0  0  0  0  0  0  0
   -9.7385    3.5462    0.5262 H   0  0  0  0  0  0  0  0  0  0  0  0
   -8.0286   -0.9800    2.0400 H   0  0  0  0  0  0  0  0  0  0  0  0
   -9.4843   -0.0962    1.6047 H   0  0  0  0  0  0  0  0  0  0  0  0
   -8.4177    0.5227    2.8993 H   0  0  0  0  0  0  0  0  0  0  0  0
  1  2  1  0  0  0  0
  1 34  1  0  0  0  0
  1 35  1  0  0  0  0
  1 36  1  0  0  0  0
  2  3  2  0  0  0  0
  2  7  1  0  0  0  0
  3  4  1  0  0  0  0
  3 37  1  0  0  0  0
  4  5  2  0  0  0  0
  4 38  1  0  0  0  0
  5  6  1  0  0  0  0
  5  8  1  0  0  0  0
  6  7  2  0  0  0  0
  6 39  1  0  0  0  0
  7 40  1  0  0  0  0
  8  9  1  0  0  0  0
  8 41  1  0  0  0  0
  8 42  1  0  0  0  0
  9 10  1  0  0  0  0
  9 13  1  0  0  0  0
 10 11  2  0  0  0  0
 10 43  1  0  0  0  0
 11 12  1  0  0  0  0
 12 13  2  0  0  0  0
 12 17  1  0  0  0  0
 13 14  1  0  0  0  0
 14 15  2  0  0  0  0
 14 44  1  0  0  0  0
 15 16  1  0  0  0  0
 15 33  1  0  0  0  0
 16 17  2  0  0  0  0
 16 32  1  0  0  0  0
 17 18  1  0  0  0  0
 18 19  1  0  0  0  0
 18 45  1  0  0  0  0
 19 20  2  0  0  0  0
 19 21  2  0  0  0  0
 19 22  1  0  0  0  0
 22 23  2  0  0  0  0
 22 27  1  0  0  0  0
 23 24  1  0  0  0  0
 23 46  1  0  0  0  0
 24 25  2  0  0  0  0
 24 47  1  0  0  0  0
 25 26  1  0  0  0  0
 25 48  1  0  0  0  0
 26 27  2  0  0  0  0
 26 28  1  0  0  0  0
 27 49  1  0  0  0  0
 28 29  1  0  0  0  0
 28 30  1  0  0  0  0
 28 31  1  0  0  0  0
 32 50  1  0  0  0  0
 32 51  1  0  0  0  0
 32 52  1  0  0  0  0
 33 53  1  0  0  0  0
 33 54  1  0  0  0  0
 33 55  1  0  0  0  0
M  END
