
 OpenBabel10072619423D

 46 49  0  0  1  0  0  0  0  0999 V2000
    7.7759   -3.6662    2.8352 C   0  0  0  0  0  0  0  0  0  0  0  0
    6.7035   -3.1539    1.9092 C   0  0  0  0  0  0  0  0  0  0  0  0
    5.5973   -3.6909    1.8494 O   0  0  0  0  0  0  0  0  0  0  0  0
    6.9930   -1.9674    1.0527 C   0  0  0  0  0  0  0  0  0  0  0  0
    8.3219   -1.6381    0.7446 C   0  0  0  0  0  0  0  0  0  0  0  0
    8.5423   -0.5513   -0.0748 C   0  0  0  0  0  0  0  0  0  0  0  0
    7.5121    0.2023   -0.5820 C   0  0  0  0  0  0  0  0  0  0  0  0
    6.1964   -0.0868   -0.2980 C   0  0  0  0  0  0  0  0  0  0  0  0
    5.9276   -1.1883    0.5247 C   0  0  0  0  0  0  0  0  0  0  0  0
    4.5547   -1.4761    0.8360 N   0  0  0  0  0  0  0  0  0  0  0  0
    3.7649   -0.4598    1.9453 S   0  0  0  0  0  0  0  0  0  0  0  0
    3.9958    0.9229    1.5845 O   0  0  0  0  0  0  0  0  0  0  0  0
    2.4229   -0.9755    2.1110 O   0  0  0  0  0  0  0  0  0  0  0  0
    4.6420   -0.7775    3.4609 C   0  0  0  0  0  0  0  0  0  0  0  0
    5.6742    0.0704    3.8653 C   0  0  0  0  0  0  0  0  0  0  0  0
    6.3513   -0.1897    5.0599 C   0  0  0  0  0  0  0  0  0  0  0  0
    5.9941   -1.2844    5.8662 C   0  0  0  0  0  0  0  0  0  0  0  0
    4.9362   -2.1104    5.4503 C   0  0  0  0  0  0  0  0  0  0  0  0
    4.2579   -1.8574    4.2574 C   0  0  0  0  0  0  0  0  0  0  0  0
    6.6885   -1.5866    7.1863 C   0  0  3  0  0  0  0  0  0  0  0  0
    6.5692   -0.4380    8.2003 C   0  0  0  0  0  0  0  0  0  0  0  0
    7.9103    0.2473    8.1291 C   0  0  0  0  0  0  0  0  0  0  0  0
    8.2133    1.2998    8.6617 O   0  0  0  0  0  0  0  0  0  0  0  0
    8.7724   -0.5378    7.3965 N   0  0  0  0  0  0  0  0  0  0  0  0
    8.1970   -1.8019    7.0501 C   0  0  0  0  0  0  0  0  0  0  0  0
    7.9531    1.2175   -1.3704 O   0  0  0  0  0  0  0  0  0  0  0  0
    9.3796    1.0167   -1.3076 C   0  0  0  0  0  0  0  0  0  0  0  0
    9.7606   -0.1034   -0.4789 O   0  0  0  0  0  0  0  0  0  0  0  0
    7.3088   -4.2541    3.6313 H   0  0  0  0  0  0  0  0  0  0  0  0
    8.3061   -2.8371    3.3122 H   0  0  0  0  0  0  0  0  0  0  0  0
    8.4732   -4.3013    2.2835 H   0  0  0  0  0  0  0  0  0  0  0  0
    9.1693   -2.2117    1.1018 H   0  0  0  0  0  0  0  0  0  0  0  0
    5.3968    0.5197   -0.7116 H   0  0  0  0  0  0  0  0  0  0  0  0
    4.3976   -2.4612    1.1012 H   0  0  0  0  0  0  0  0  0  0  0  0
    5.9520    0.9357    3.2667 H   0  0  0  0  0  0  0  0  0  0  0  0
    7.1494    0.4878    5.3590 H   0  0  0  0  0  0  0  0  0  0  0  0
    4.6196   -2.9568    6.0582 H   0  0  0  0  0  0  0  0  0  0  0  0
    3.4377   -2.5071    3.9575 H   0  0  0  0  0  0  0  0  0  0  0  0
    6.2351   -2.4932    7.6070 H   0  0  0  0  0  0  0  0  0  0  0  0
    6.4457   -0.8286    9.2158 H   0  0  0  0  0  0  0  0  0  0  0  0
    5.7626    0.2645    7.9725 H   0  0  0  0  0  0  0  0  0  0  0  0
    9.7563   -0.3010    7.3504 H   0  0  0  0  0  0  0  0  0  0  0  0
    8.5570   -2.5324    7.7826 H   0  0  0  0  0  0  0  0  0  0  0  0
    8.5261   -2.1020    6.0515 H   0  0  0  0  0  0  0  0  0  0  0  0
    9.8450    1.9237   -0.9062 H   0  0  0  0  0  0  0  0  0  0  0  0
    9.7560    0.8458   -2.3226 H   0  0  0  0  0  0  0  0  0  0  0  0
  1  2  1  0  0  0  0
  1 29  1  0  0  0  0
  1 30  1  0  0  0  0
  1 31  1  0  0  0  0
  2  3  2  0  0  0  0
  2  4  1  0  0  0  0
  4  5  2  0  0  0  0
  4  9  1  0  0  0  0
  5  6  1  0  0  0  0
  5 32  1  0  0  0  0
  6  7  2  0  0  0  0
  6 28  1  0  0  0  0
  7  8  1  0  0  0  0
  7 26  1  0  0  0  0
  8  9  2  0  0  0  0
  8 33  1  0  0  0  0
  9 10  1  0  0  0  0
 10 11  1  0  0  0  0
 10 34  1  0  0  0  0
 11 12  2  0  0  0  0
 11 13  2  0  0  0  0
 11 14  1  0  0  0  0
 14 15  2  0  0  0  0
 14 19  1  0  0  0  0
 15 16  1  0  0  0  0
 15 35  1  0  0  0  0
 16 17  2  0  0  0  0
 16 36  1  0  0  0  0
 17 18  1  0  0  0  0
 17 20  1  0  0  0  0
 18 19  2  0  0  0  0
 18 37  1  0  0  0  0
 19 38  1  0  0  0  0
 20 21  1  0  0  0  0
 20 25  1  0  0  0  0
 20 39  1  0  0  0  0
 21 22  1  0  0  0  0
 21 40  1  0  0  0  0
 21 41  1  0  0  0  0
 22 23  2  0  0  0  0
 22 24  1  0  0  0  0
 24 25  1  0  0  0  0
 24 42  1  0  0  0  0
 25 43  1  0  0  0  0
 25 44  1  0  0  0  0
 26 27  1  0  0  0  0
 27 28  1  0  0  0  0
 27 45  1  0  0  0  0
 27 46  1  0  0  0  0
M  END
