
 OpenBabel10072619483D

 76 81  0  0  0  0  0  0  0  0999 V2000
    5.0402   -1.8073   -1.8255 C   0  0  0  0  0  0  0  0  0  0  0  0
    4.4315   -0.7382   -0.9375 C   0  0  0  0  0  0  0  0  0  0  0  0
    5.2545    0.2821   -0.4436 C   0  0  0  0  0  0  0  0  0  0  0  0
    4.6923    1.2977    0.3012 C   0  0  0  0  0  0  0  0  0  0  0  0
    3.3326    1.2719    0.5694 C   0  0  0  0  0  0  0  0  0  0  0  0
    2.5184    0.2686    0.1505 N   0  3  0  0  0  0  0  0  0  0  0  0
    3.0445   -0.7818   -0.5787 C   0  0  0  0  0  0  0  0  0  0  0  0
    2.1846   -1.9357   -1.0877 C   0  0  0  0  0  0  0  0  0  0  0  0
    1.2851   -1.4722   -2.6119 S   0  0  0  0  0  0  0  0  0  0  0  0
    0.3385   -3.2261   -3.1257 S   0  0  0  0  0  0  0  0  0  0  0  0
    1.5671   -4.0593   -4.1963 C   0  0  0  0  0  0  0  0  0  0  0  0
    1.1270   -5.4838   -4.5310 C   0  0  0  0  0  0  0  0  0  0  0  0
    0.1095   -5.7485   -5.4331 N   0  3  0  0  0  0  0  0  0  0  0  0
   -0.3015   -7.0281   -5.6369 C   0  0  0  0  0  0  0  0  0  0  0  0
    0.2765   -8.1057   -4.9874 C   0  0  0  0  0  0  0  0  0  0  0  0
    1.2954   -7.8777   -4.0868 C   0  0  0  0  0  0  0  0  0  0  0  0
    1.7056   -6.5749   -3.8053 C   0  0  0  0  0  0  0  0  0  0  0  0
    2.7437   -6.3418   -2.7311 C   0  0  0  0  0  0  0  0  0  0  0  0
    1.7877   -8.9410   -3.3860 O   0  0  0  0  0  0  0  0  0  0  0  0
    2.9415   -9.5417   -4.0143 C   0  0  0  0  0  0  0  0  0  0  0  0
    2.6975  -11.0131   -4.3161 C   0  0  0  0  0  0  0  0  0  0  0  0
    1.6265  -11.1557   -5.1315 F   0  0  0  0  0  0  0  0  0  0  0  0
    3.7648  -11.5469   -4.9473 F   0  0  0  0  0  0  0  0  0  0  0  0
    2.4733  -11.7239   -3.1935 F   0  0  0  0  0  0  0  0  0  0  0  0
   -0.5113   -4.7240   -6.1924 C   0  0  0  0  0  0  0  0  0  0  0  0
    0.1112   -3.6140   -6.5311 N   0  0  0  0  0  0  0  0  0  0  0  0
   -0.7688   -2.8778   -7.2807 C   0  0  0  0  0  0  0  0  0  0  0  0
   -0.6016   -1.6238   -7.8825 C   0  0  0  0  0  0  0  0  0  0  0  0
   -1.6767   -1.0759   -8.5922 C   0  0  0  0  0  0  0  0  0  0  0  0
   -2.8865   -1.7662   -8.7025 C   0  0  0  0  0  0  0  0  0  0  0  0
   -3.0676   -3.0225   -8.1093 C   0  0  0  0  0  0  0  0  0  0  0  0
   -1.9781   -3.5450   -7.4087 C   0  0  0  0  0  0  0  0  0  0  0  0
   -1.7915   -4.7177   -6.7196 N   0  0  0  0  0  0  0  0  0  0  0  0
    1.1420    0.3443    0.4900 C   0  0  0  0  0  0  0  0  0  0  0  0
    0.3545   -0.7069    0.5676 N   0  0  0  0  0  0  0  0  0  0  0  0
   -0.8910   -0.2529    0.9177 C   0  0  0  0  0  0  0  0  0  0  0  0
   -2.0813   -0.9606    1.1304 C   0  0  0  0  0  0  0  0  0  0  0  0
   -3.2317   -0.2383    1.4689 C   0  0  0  0  0  0  0  0  0  0  0  0
   -3.1920    1.1521    1.5999 C   0  0  0  0  0  0  0  0  0  0  0  0
   -2.0066    1.8709    1.4045 C   0  0  0  0  0  0  0  0  0  0  0  0
   -0.8784    1.1254    1.0616 C   0  0  0  0  0  0  0  0  0  0  0  0
    0.4179    1.4849    0.7944 N   0  0  0  0  0  0  0  0  0  0  0  0
    6.5751    0.2155   -0.7728 O   0  0  0  0  0  0  0  0  0  0  0  0
    7.5274    0.9158    0.0442 C   0  0  0  0  0  0  0  0  0  0  0  0
    8.9160    0.3197   -0.1480 C   0  0  0  0  0  0  0  0  0  0  0  0
    9.3173    0.4103   -1.4328 F   0  0  0  0  0  0  0  0  0  0  0  0
    9.8165    0.9702    0.6190 F   0  0  0  0  0  0  0  0  0  0  0  0
    8.9358   -0.9834    0.2087 F   0  0  0  0  0  0  0  0  0  0  0  0
    6.0040   -1.5064   -2.2477 H   0  0  0  0  0  0  0  0  0  0  0  0
    4.3978   -2.0082   -2.6897 H   0  0  0  0  0  0  0  0  0  0  0  0
    5.1903   -2.7281   -1.2531 H   0  0  0  0  0  0  0  0  0  0  0  0
    5.2848    2.1282    0.6745 H   0  0  0  0  0  0  0  0  0  0  0  0
    2.9067    2.0688    1.1750 H   0  0  0  0  0  0  0  0  0  0  0  0
    1.5103   -2.3166   -0.3193 H   0  0  0  0  0  0  0  0  0  0  0  0
    2.8128   -2.8015   -1.3166 H   0  0  0  0  0  0  0  0  0  0  0  0
    2.5210   -4.0680   -3.6620 H   0  0  0  0  0  0  0  0  0  0  0  0
    1.7852   -3.4794   -5.0937 H   0  0  0  0  0  0  0  0  0  0  0  0
   -1.0865   -7.2120   -6.3672 H   0  0  0  0  0  0  0  0  0  0  0  0
   -0.0737   -9.1185   -5.1828 H   0  0  0  0  0  0  0  0  0  0  0  0
    2.9517   -7.2384   -2.1403 H   0  0  0  0  0  0  0  0  0  0  0  0
    2.3935   -5.5894   -2.0169 H   0  0  0  0  0  0  0  0  0  0  0  0
    3.6857   -6.0150   -3.1822 H   0  0  0  0  0  0  0  0  0  0  0  0
    3.7781   -9.4473   -3.3131 H   0  0  0  0  0  0  0  0  0  0  0  0
    3.2255   -9.0203   -4.9373 H   0  0  0  0  0  0  0  0  0  0  0  0
    0.3403   -1.0912   -7.8056 H   0  0  0  0  0  0  0  0  0  0  0  0
   -1.5684   -0.1010   -9.0660 H   0  0  0  0  0  0  0  0  0  0  0  0
   -3.7041   -1.3161   -9.2667 H   0  0  0  0  0  0  0  0  0  0  0  0
   -4.0130   -3.5491   -8.2055 H   0  0  0  0  0  0  0  0  0  0  0  0
   -2.5124   -5.4129   -6.5831 H   0  0  0  0  0  0  0  0  0  0  0  0
   -2.1144   -2.0418    1.0407 H   0  0  0  0  0  0  0  0  0  0  0  0
   -4.1694   -0.7664    1.6386 H   0  0  0  0  0  0  0  0  0  0  0  0
   -4.1035    1.6871    1.8662 H   0  0  0  0  0  0  0  0  0  0  0  0
   -1.9842    2.9498    1.5233 H   0  0  0  0  0  0  0  0  0  0  0  0
    0.7422    2.4396    0.7710 H   0  0  0  0  0  0  0  0  0  0  0  0
    7.2607    0.8354    1.1047 H   0  0  0  0  0  0  0  0  0  0  0  0
    7.5429    1.9696   -0.2532 H   0  0  0  0  0  0  0  0  0  0  0  0
  1  2  1  0  0  0  0
  1 49  1  0  0  0  0
  1 50  1  0  0  0  0
  1 51  1  0  0  0  0
  2  3  2  0  0  0  0
  2  7  1  0  0  0  0
  3  4  1  0  0  0  0
  3 43  1  0  0  0  0
  4  5  2  0  0  0  0
  4 52  1  0  0  0  0
  5  6  1  0  0  0  0
  5 53  1  0  0  0  0
  6  7  2  0  0  0  0
  6 34  1  0  0  0  0
  7  8  1  0  0  0  0
  8  9  1  0  0  0  0
  8 54  1  0  0  0  0
  8 55  1  0  0  0  0
  9 10  1  0  0  0  0
 10 11  1  0  0  0  0
 11 12  1  0  0  0  0
 11 56  1  0  0  0  0
 11 57  1  0  0  0  0
 12 13  2  0  0  0  0
 12 17  1  0  0  0  0
 13 14  1  0  0  0  0
 13 25  1  0  0  0  0
 14 15  2  0  0  0  0
 14 58  1  0  0  0  0
 15 16  1  0  0  0  0
 15 59  1  0  0  0  0
 16 17  2  0  0  0  0
 16 19  1  0  0  0  0
 17 18  1  0  0  0  0
 18 60  1  0  0  0  0
 18 61  1  0  0  0  0
 18 62  1  0  0  0  0
 19 20  1  0  0  0  0
 20 21  1  0  0  0  0
 20 63  1  0  0  0  0
 20 64  1  0  0  0  0
 21 22  1  0  0  0  0
 21 23  1  0  0  0  0
 21 24  1  0  0  0  0
 25 26  2  0  0  0  0
 25 33  1  0  0  0  0
 26 27  1  0  0  0  0
 27 28  2  0  0  0  0
 27 32  1  0  0  0  0
 28 29  1  0  0  0  0
 28 65  1  0  0  0  0
 29 30  2  0  0  0  0
 29 66  1  0  0  0  0
 30 31  1  0  0  0  0
 30 67  1  0  0  0  0
 31 32  2  0  0  0  0
 31 68  1  0  0  0  0
 32 33  1  0  0  0  0
 33 69  1  0  0  0  0
 34 35  2  0  0  0  0
 34 42  1  0  0  0  0
 35 36  1  0  0  0  0
 36 37  2  0  0  0  0
 36 41  1  0  0  0  0
 37 38  1  0  0  0  0
 37 70  1  0  0  0  0
 38 39  2  0  0  0  0
 38 71  1  0  0  0  0
 39 40  1  0  0  0  0
 39 72  1  0  0  0  0
 40 41  2  0  0  0  0
 40 73  1  0  0  0  0
 41 42  1  0  0  0  0
 42 74  1  0  0  0  0
 43 44  1  0  0  0  0
 44 45  1  0  0  0  0
 44 75  1  0  0  0  0
 44 76  1  0  0  0  0
 45 46  1  0  0  0  0
 45 47  1  0  0  0  0
 45 48  1  0  0  0  0
M  CHG  2   6   1  13   1
M  END
