
 OpenBabel10072620033D

 27 28  0  0  0  0  0  0  0  0999 V2000
   -1.8702    0.6222   -0.1252 C   0  0  0  0  0  0  0  0  0  0  0  0
   -0.8692   -0.2354   -0.5869 C   0  0  0  0  0  0  0  0  0  0  0  0
   -1.1339   -1.1353   -1.6269 C   0  0  0  0  0  0  0  0  0  0  0  0
   -2.3969   -1.1514   -2.2298 C   0  0  0  0  0  0  0  0  0  0  0  0
   -3.3913   -0.2858   -1.7782 C   0  0  0  0  0  0  0  0  0  0  0  0
   -3.1311    0.5757   -0.7152 C   0  0  0  0  0  0  0  0  0  0  0  0
   -4.1850    1.4260   -0.2786 N   0  0  0  0  0  0  0  0  0  0  0  0
   -4.1845    2.9974   -0.9364 S   0  0  0  0  0  0  0  0  0  0  0  0
   -3.0908    3.7015   -0.2973 O   0  0  0  0  0  0  0  0  0  0  0  0
   -4.1946    2.8585   -2.3807 O   0  0  0  0  0  0  0  0  0  0  0  0
   -5.6585    3.7271   -0.4369 C   0  0  0  0  0  0  0  0  0  0  0  0
   -6.2799    4.6102   -1.2274 C   0  0  0  0  0  0  0  0  0  0  0  0
   -7.4498    5.2045   -0.8259 N   0  0  0  0  0  0  0  0  0  0  0  0
   -8.0747    4.9253    0.3631 C   0  0  0  0  0  0  0  0  0  0  0  0
   -9.1415    5.4361    0.6792 O   0  0  0  0  0  0  0  0  0  0  0  0
   -7.4248    4.0270    1.1676 N   0  0  0  0  0  0  0  0  0  0  0  0
   -6.2360    3.4073    0.8758 C   0  0  0  0  0  0  0  0  0  0  0  0
   -5.7003    2.6222    1.6548 O   0  0  0  0  0  0  0  0  0  0  0  0
   -2.8102   -2.2333   -3.5116 Cl  0  0  0  0  0  0  0  0  0  0  0  0
    0.1220   -2.2240   -2.1019 Cl  0  0  0  0  0  0  0  0  0  0  0  0
   -1.6571    1.3114    0.6883 H   0  0  0  0  0  0  0  0  0  0  0  0
    0.1160   -0.2069   -0.1295 H   0  0  0  0  0  0  0  0  0  0  0  0
   -4.3753   -0.2887   -2.2409 H   0  0  0  0  0  0  0  0  0  0  0  0
   -4.2938    1.4893    0.7430 H   0  0  0  0  0  0  0  0  0  0  0  0
   -5.9053    4.8981   -2.2092 H   0  0  0  0  0  0  0  0  0  0  0  0
   -7.9153    5.8845   -1.4196 H   0  0  0  0  0  0  0  0  0  0  0  0
   -7.8631    3.8122    2.0505 H   0  0  0  0  0  0  0  0  0  0  0  0
  1  2  2  0  0  0  0
  1  6  1  0  0  0  0
  1 21  1  0  0  0  0
  2  3  1  0  0  0  0
  2 22  1  0  0  0  0
  3  4  2  0  0  0  0
  3 20  1  0  0  0  0
  4  5  1  0  0  0  0
  4 19  1  0  0  0  0
  5  6  2  0  0  0  0
  5 23  1  0  0  0  0
  6  7  1  0  0  0  0
  7  8  1  0  0  0  0
  7 24  1  0  0  0  0
  8  9  2  0  0  0  0
  8 10  2  0  0  0  0
  8 11  1  0  0  0  0
 11 12  2  0  0  0  0
 11 17  1  0  0  0  0
 12 13  1  0  0  0  0
 12 25  1  0  0  0  0
 13 14  1  0  0  0  0
 13 26  1  0  0  0  0
 14 15  2  0  0  0  0
 14 16  1  0  0  0  0
 16 17  1  0  0  0  0
 16 27  1  0  0  0  0
 17 18  2  0  0  0  0
M  END
