
 OpenBabel10072616313D

 32 33  0  0  0  0  0  0  0  0999 V2000
    1.5755    0.2093    0.6654 C   0  0  0  0  0  0  0  0  0  0  0  0
    2.8520   -0.3500    0.3799 O   0  0  0  0  0  0  0  0  0  0  0  0
    3.1907   -0.4691   -0.9391 C   0  0  0  0  0  0  0  0  0  0  0  0
    2.3883   -0.1327   -2.0274 C   0  0  0  0  0  0  0  0  0  0  0  0
    2.8630   -0.2977   -3.3367 C   0  0  0  0  0  0  0  0  0  0  0  0
    4.1450   -0.7942   -3.5726 C   0  0  0  0  0  0  0  0  0  0  0  0
    4.9425   -1.1428   -2.4776 C   0  0  0  0  0  0  0  0  0  0  0  0
    4.4672   -0.9807   -1.1727 C   0  0  0  0  0  0  0  0  0  0  0  0
    4.6962   -0.9802   -4.8561 N   0  0  0  0  0  0  0  0  0  0  0  0
    4.1641   -0.5810   -6.0727 C   0  0  0  0  0  0  0  0  0  0  0  0
    3.1221    0.0387   -6.2321 O   0  0  0  0  0  0  0  0  0  0  0  0
    4.9735   -1.0351   -7.1068 N   0  0  0  0  0  0  0  0  0  0  0  0
    4.8989   -0.6020   -8.4498 C   0  0  0  0  0  0  0  0  0  0  0  0
    4.4676    0.6752   -8.8390 C   0  0  0  0  0  0  0  0  0  0  0  0
    4.4325    1.0455  -10.1846 C   0  0  0  0  0  0  0  0  0  0  0  0
    4.8459    0.1445  -11.1625 C   0  0  0  0  0  0  0  0  0  0  0  0
    5.3048   -1.1095  -10.7782 C   0  0  0  0  0  0  0  0  0  0  0  0
    5.3438   -1.4876   -9.4376 C   0  0  0  0  0  0  0  0  0  0  0  0
    5.7251   -1.9712  -11.7134 F   0  0  0  0  0  0  0  0  0  0  0  0
    4.1637    1.6158   -7.9342 F   0  0  0  0  0  0  0  0  0  0  0  0
    1.4652    0.2525    1.7534 H   0  0  0  0  0  0  0  0  0  0  0  0
    0.7725   -0.4243    0.2745 H   0  0  0  0  0  0  0  0  0  0  0  0
    1.4963    1.2322    0.2817 H   0  0  0  0  0  0  0  0  0  0  0  0
    1.3866    0.2644   -1.9017 H   0  0  0  0  0  0  0  0  0  0  0  0
    2.2000   -0.0236   -4.1521 H   0  0  0  0  0  0  0  0  0  0  0  0
    5.9442   -1.5388   -2.6180 H   0  0  0  0  0  0  0  0  0  0  0  0
    5.1005   -1.2507   -0.3313 H   0  0  0  0  0  0  0  0  0  0  0  0
    5.6568   -1.2871   -4.8875 H   0  0  0  0  0  0  0  0  0  0  0  0
    5.3885   -1.9404   -6.9421 H   0  0  0  0  0  0  0  0  0  0  0  0
    4.0999    2.0436  -10.4528 H   0  0  0  0  0  0  0  0  0  0  0  0
    4.8290    0.4159  -12.2131 H   0  0  0  0  0  0  0  0  0  0  0  0
    5.7093   -2.4789   -9.1916 H   0  0  0  0  0  0  0  0  0  0  0  0
  1  2  1  0  0  0  0
  1 21  1  0  0  0  0
  1 22  1  0  0  0  0
  1 23  1  0  0  0  0
  2  3  1  0  0  0  0
  3  4  2  0  0  0  0
  3  8  1  0  0  0  0
  4  5  1  0  0  0  0
  4 24  1  0  0  0  0
  5  6  2  0  0  0  0
  5 25  1  0  0  0  0
  6  7  1  0  0  0  0
  6  9  1  0  0  0  0
  7  8  2  0  0  0  0
  7 26  1  0  0  0  0
  8 27  1  0  0  0  0
  9 10  1  0  0  0  0
  9 28  1  0  0  0  0
 10 11  2  0  0  0  0
 10 12  1  0  0  0  0
 12 13  1  0  0  0  0
 12 29  1  0  0  0  0
 13 14  2  0  0  0  0
 13 18  1  0  0  0  0
 14 15  1  0  0  0  0
 14 20  1  0  0  0  0
 15 16  2  0  0  0  0
 15 30  1  0  0  0  0
 16 17  1  0  0  0  0
 16 31  1  0  0  0  0
 17 18  2  0  0  0  0
 17 19  1  0  0  0  0
 18 32  1  0  0  0  0
M  END
