
 OpenBabel10072620023D

 56 58  0  0  0  0  0  0  0  0999 V2000
    1.0636    0.1178   -1.6867 C   0  0  0  0  0  0  0  0  0  0  0  0
    0.2204   -0.9888   -1.5547 C   0  0  0  0  0  0  0  0  0  0  0  0
   -0.5551   -1.1604   -0.4030 C   0  0  0  0  0  0  0  0  0  0  0  0
   -0.4933   -0.1950    0.6079 C   0  0  0  0  0  0  0  0  0  0  0  0
    0.3369    0.9224    0.4726 C   0  0  0  0  0  0  0  0  0  0  0  0
    1.1286    1.0765   -0.6710 C   0  0  0  0  0  0  0  0  0  0  0  0
    1.9966    2.2482   -0.8350 C   0  0  0  0  0  0  0  0  0  0  0  0
    3.1449    2.4610   -0.1615 C   0  0  0  0  0  0  0  0  0  0  0  0
    3.6457    1.5375    0.8065 C   0  0  0  0  0  0  0  0  0  0  0  0
    4.0792    0.7872    1.5805 N   0  0  0  0  0  0  0  0  0  0  0  0
    3.9448    3.6348   -0.3679 C   0  0  0  0  0  0  0  0  0  0  0  0
    3.7417    4.7808    0.2997 N   0  0  0  0  0  0  0  0  0  0  0  0
    4.7149    5.6061   -0.1425 N   0  0  0  0  0  0  0  0  0  0  0  0
    5.5509    5.0177   -1.0662 C   0  0  0  0  0  0  0  0  0  0  0  0
    5.0462    3.7477   -1.2566 C   0  0  0  0  0  0  0  0  0  0  0  0
    5.5615    2.7645   -2.1483 C   0  0  0  0  0  0  0  0  0  0  0  0
    5.9681    1.9615   -2.8822 N   0  0  0  0  0  0  0  0  0  0  0  0
    6.6191    5.6605   -1.5949 N   0  0  0  0  0  0  0  0  0  0  0  0
    4.7931    6.9564    0.3967 C   0  0  0  0  0  0  0  0  0  0  0  0
    5.8643    7.0730    1.4728 C   0  0  0  0  0  0  0  0  0  0  0  0
    7.1736    7.0280    0.9024 O   0  0  0  0  0  0  0  0  0  0  0  0
   -1.4875   -2.2858   -0.2661 C   0  0  0  0  0  0  0  0  0  0  0  0
   -1.2104   -3.5924   -0.4580 C   0  0  0  0  0  0  0  0  0  0  0  0
   -2.2540   -4.5531   -0.2853 C   0  0  0  0  0  0  0  0  0  0  0  0
   -3.1114   -5.3167   -0.1135 N   0  0  0  0  0  0  0  0  0  0  0  0
    0.0798   -4.1319   -0.7850 C   0  0  0  0  0  0  0  0  0  0  0  0
    0.4361   -4.5008   -2.0260 N   0  0  0  0  0  0  0  0  0  0  0  0
    1.7059   -4.9424   -1.8927 N   0  0  0  0  0  0  0  0  0  0  0  0
    2.1857   -4.8529   -0.6040 C   0  0  0  0  0  0  0  0  0  0  0  0
    1.1430   -4.3327    0.1337 C   0  0  0  0  0  0  0  0  0  0  0  0
    1.1431   -4.0667    1.5351 C   0  0  0  0  0  0  0  0  0  0  0  0
    1.1207   -3.8619    2.6757 N   0  0  0  0  0  0  0  0  0  0  0  0
    3.4437   -5.2105   -0.2568 N   0  0  0  0  0  0  0  0  0  0  0  0
    2.4026   -5.4484   -3.0652 C   0  0  0  0  0  0  0  0  0  0  0  0
    3.4004   -4.4391   -3.6201 C   0  0  0  0  0  0  0  0  0  0  0  0
    4.5861   -4.3925   -2.8267 O   0  0  0  0  0  0  0  0  0  0  0  0
    1.6625    0.2244   -2.5898 H   0  0  0  0  0  0  0  0  0  0  0  0
    0.1670   -1.7050   -2.3721 H   0  0  0  0  0  0  0  0  0  0  0  0
   -1.0917   -0.2987    1.5109 H   0  0  0  0  0  0  0  0  0  0  0  0
    0.3542    1.6672    1.2672 H   0  0  0  0  0  0  0  0  0  0  0  0
    1.6487    2.9651   -1.5775 H   0  0  0  0  0  0  0  0  0  0  0  0
    7.0147    6.4913   -1.1398 H   0  0  0  0  0  0  0  0  0  0  0  0
    7.3148    5.1635   -2.1517 H   0  0  0  0  0  0  0  0  0  0  0  0
    3.8069    7.1956    0.8119 H   0  0  0  0  0  0  0  0  0  0  0  0
    4.9868    7.6334   -0.4428 H   0  0  0  0  0  0  0  0  0  0  0  0
    5.7751    6.2868    2.2299 H   0  0  0  0  0  0  0  0  0  0  0  0
    5.7719    8.0397    1.9759 H   0  0  0  0  0  0  0  0  0  0  0  0
    7.5098    6.1217    1.0384 H   0  0  0  0  0  0  0  0  0  0  0  0
   -2.4955   -1.9888    0.0214 H   0  0  0  0  0  0  0  0  0  0  0  0
    4.0633   -5.7457   -0.8682 H   0  0  0  0  0  0  0  0  0  0  0  0
    3.7315   -5.2577    0.7223 H   0  0  0  0  0  0  0  0  0  0  0  0
    1.6429   -5.6814   -3.8196 H   0  0  0  0  0  0  0  0  0  0  0  0
    2.8911   -6.3833   -2.7698 H   0  0  0  0  0  0  0  0  0  0  0  0
    2.9815   -3.4291   -3.6890 H   0  0  0  0  0  0  0  0  0  0  0  0
    3.7098   -4.7452   -4.6251 H   0  0  0  0  0  0  0  0  0  0  0  0
    4.3635   -3.9191   -2.0001 H   0  0  0  0  0  0  0  0  0  0  0  0
  1  2  2  0  0  0  0
  1  6  1  0  0  0  0
  1 37  1  0  0  0  0
  2  3  1  0  0  0  0
  2 38  1  0  0  0  0
  3  4  2  0  0  0  0
  3 22  1  0  0  0  0
  4  5  1  0  0  0  0
  4 39  1  0  0  0  0
  5  6  2  0  0  0  0
  5 40  1  0  0  0  0
  6  7  1  0  0  0  0
  7  8  2  0  0  0  0
  7 41  1  0  0  0  0
  8  9  1  0  0  0  0
  8 11  1  0  0  0  0
  9 10  3  0  0  0  0
 11 12  2  0  0  0  0
 11 15  1  0  0  0  0
 12 13  1  0  0  0  0
 13 14  1  0  0  0  0
 13 19  1  0  0  0  0
 14 15  2  0  0  0  0
 14 18  1  0  0  0  0
 15 16  1  0  0  0  0
 16 17  3  0  0  0  0
 18 42  1  0  0  0  0
 18 43  1  0  0  0  0
 19 20  1  0  0  0  0
 19 44  1  0  0  0  0
 19 45  1  0  0  0  0
 20 21  1  0  0  0  0
 20 46  1  0  0  0  0
 20 47  1  0  0  0  0
 21 48  1  0  0  0  0
 22 23  2  0  0  0  0
 22 49  1  0  0  0  0
 23 24  1  0  0  0  0
 23 26  1  0  0  0  0
 24 25  3  0  0  0  0
 26 27  2  0  0  0  0
 26 30  1  0  0  0  0
 27 28  1  0  0  0  0
 28 29  1  0  0  0  0
 28 34  1  0  0  0  0
 29 30  2  0  0  0  0
 29 33  1  0  0  0  0
 30 31  1  0  0  0  0
 31 32  3  0  0  0  0
 33 50  1  0  0  0  0
 33 51  1  0  0  0  0
 34 35  1  0  0  0  0
 34 52  1  0  0  0  0
 34 53  1  0  0  0  0
 35 36  1  0  0  0  0
 35 54  1  0  0  0  0
 35 55  1  0  0  0  0
 36 56  1  0  0  0  0
M  END
