
 OpenBabel10072620113D

 53 55  0  0  1  0  0  0  0  0999 V2000
    2.8692   -1.0887    0.2167 C   0  0  0  0  0  0  0  0  0  0  0  0
    2.2221    0.1601    0.0025 O   0  0  0  0  0  0  0  0  0  0  0  0
    3.0327    1.2433   -0.2233 C   0  0  0  0  0  0  0  0  0  0  0  0
    2.3554    2.4327   -0.5077 C   0  0  0  0  0  0  0  0  0  0  0  0
    3.0389    3.6098   -0.7755 C   0  0  0  0  0  0  0  0  0  0  0  0
    4.4343    3.6103   -0.7476 C   0  0  0  0  0  0  0  0  0  0  0  0
    5.1416    2.4407   -0.4353 C   0  0  0  0  0  0  0  0  0  0  0  0
    4.4282    1.2533   -0.1881 C   0  0  0  0  0  0  0  0  0  0  0  0
    6.6125    2.3943   -0.3937 C   0  0  0  0  0  0  0  0  0  0  0  0
    7.3892    3.4140    0.0123 C   0  0  0  0  0  0  0  0  0  0  0  0
    8.8554    3.3499    0.1315 C   0  0  0  0  0  0  0  0  0  0  0  0
    9.6540    2.5331   -0.6828 C   0  0  0  0  0  0  0  0  0  0  0  0
   11.0598    2.4844   -0.5461 C   0  0  0  0  0  0  0  0  0  0  0  0
   11.6558    3.2791    0.4422 C   0  0  0  0  0  0  0  0  0  0  0  0
   10.8682    4.1165    1.2300 C   0  0  0  0  0  0  0  0  0  0  0  0
    9.4865    4.1627    1.0773 C   0  0  0  0  0  0  0  0  0  0  0  0
   11.4235    4.9175    2.1849 O   0  0  0  0  0  0  0  0  0  0  0  0
   11.8355    1.5400   -1.4561 C   0  0  3  0  0  0  0  0  0  0  0  0
   13.3714    1.4487   -1.2987 C   0  0  3  0  0  0  0  0  0  0  0  0
   14.0746    2.6412   -1.9657 C   0  0  3  0  0  0  0  0  0  0  0  0
   13.6210    2.7991   -3.4214 C   0  0  3  0  0  0  0  0  0  0  0  0
   12.0867    2.9187   -3.4421 C   0  0  3  0  0  0  0  0  0  0  0  0
   11.4682    1.7737   -2.8326 O   0  0  0  0  0  0  0  0  0  0  0  0
   11.5392    3.0291   -4.8679 C   0  0  0  0  0  0  0  0  0  0  0  0
   12.1271    4.1261   -5.5560 O   0  0  0  0  0  0  0  0  0  0  0  0
   14.0532    1.6425   -4.1667 O   0  0  0  0  0  0  0  0  0  0  0  0
   15.4939    2.4575   -1.9124 O   0  0  0  0  0  0  0  0  0  0  0  0
   13.8444    0.2259   -1.9083 O   0  0  0  0  0  0  0  0  0  0  0  0
    0.9868    2.4533   -0.5291 O   0  0  0  0  0  0  0  0  0  0  0  0
    2.0935   -1.8471    0.3624 H   0  0  0  0  0  0  0  0  0  0  0  0
    3.4841   -1.0633    1.1219 H   0  0  0  0  0  0  0  0  0  0  0  0
    3.4615   -1.3806   -0.6568 H   0  0  0  0  0  0  0  0  0  0  0  0
    2.4906    4.5184   -1.0032 H   0  0  0  0  0  0  0  0  0  0  0  0
    4.9585    4.5344   -0.9787 H   0  0  0  0  0  0  0  0  0  0  0  0
    4.9849    0.3521    0.0487 H   0  0  0  0  0  0  0  0  0  0  0  0
    7.0512    1.4386   -0.6646 H   0  0  0  0  0  0  0  0  0  0  0  0
    6.9382    4.3483    0.3372 H   0  0  0  0  0  0  0  0  0  0  0  0
    9.1874    1.9123   -1.4473 H   0  0  0  0  0  0  0  0  0  0  0  0
   12.7270    3.2583    0.6112 H   0  0  0  0  0  0  0  0  0  0  0  0
    8.9085    4.8217    1.7206 H   0  0  0  0  0  0  0  0  0  0  0  0
   12.3816    4.7592    2.2203 H   0  0  0  0  0  0  0  0  0  0  0  0
   11.4450    0.5377   -1.2303 H   0  0  0  0  0  0  0  0  0  0  0  0
   13.6650    1.3699   -0.2471 H   0  0  0  0  0  0  0  0  0  0  0  0
   13.8536    3.5656   -1.4227 H   0  0  0  0  0  0  0  0  0  0  0  0
   14.1110    3.6735   -3.8646 H   0  0  0  0  0  0  0  0  0  0  0  0
   11.7934    3.8235   -2.8944 H   0  0  0  0  0  0  0  0  0  0  0  0
   10.4498    3.1494   -4.8522 H   0  0  0  0  0  0  0  0  0  0  0  0
   11.7387    2.1156   -5.4384 H   0  0  0  0  0  0  0  0  0  0  0  0
   11.4511    4.8251   -5.6194 H   0  0  0  0  0  0  0  0  0  0  0  0
   14.0670    1.9169   -5.1048 H   0  0  0  0  0  0  0  0  0  0  0  0
   15.6487    1.5782   -2.3151 H   0  0  0  0  0  0  0  0  0  0  0  0
   13.7276    0.3399   -2.8782 H   0  0  0  0  0  0  0  0  0  0  0  0
    0.7199    1.5410   -0.3045 H   0  0  0  0  0  0  0  0  0  0  0  0
  1  2  1  0  0  0  0
  1 30  1  0  0  0  0
  1 31  1  0  0  0  0
  1 32  1  0  0  0  0
  2  3  1  0  0  0  0
  3  4  2  0  0  0  0
  3  8  1  0  0  0  0
  4  5  1  0  0  0  0
  4 29  1  0  0  0  0
  5  6  2  0  0  0  0
  5 33  1  0  0  0  0
  6  7  1  0  0  0  0
  6 34  1  0  0  0  0
  7  8  2  0  0  0  0
  7  9  1  0  0  0  0
  8 35  1  0  0  0  0
  9 10  2  0  0  0  0
  9 36  1  0  0  0  0
 10 11  1  0  0  0  0
 10 37  1  0  0  0  0
 11 12  2  0  0  0  0
 11 16  1  0  0  0  0
 12 13  1  0  0  0  0
 12 38  1  0  0  0  0
 13 14  2  0  0  0  0
 13 18  1  0  0  0  0
 14 15  1  0  0  0  0
 14 39  1  0  0  0  0
 15 16  2  0  0  0  0
 15 17  1  0  0  0  0
 16 40  1  0  0  0  0
 17 41  1  0  0  0  0
 18 19  1  0  0  0  0
 18 23  1  0  0  0  0
 18 42  1  0  0  0  0
 19 20  1  0  0  0  0
 19 28  1  0  0  0  0
 19 43  1  0  0  0  0
 20 21  1  0  0  0  0
 20 27  1  0  0  0  0
 20 44  1  0  0  0  0
 21 22  1  0  0  0  0
 21 26  1  0  0  0  0
 21 45  1  0  0  0  0
 22 23  1  0  0  0  0
 22 24  1  0  0  0  0
 22 46  1  0  0  0  0
 24 25  1  0  0  0  0
 24 47  1  0  0  0  0
 24 48  1  0  0  0  0
 25 49  1  0  0  0  0
 26 50  1  0  0  0  0
 27 51  1  0  0  0  0
 28 52  1  0  0  0  0
 29 53  1  0  0  0  0
M  END
