
 OpenBabel10072616323D

 36 38  0  0  0  0  0  0  0  0999 V2000
    8.1978    4.5303    0.5150 C   0  0  0  0  0  0  0  0  0  0  0  0
    7.2618    3.3593    0.4791 C   0  0  0  0  0  0  0  0  0  0  0  0
    6.6017    2.9823    1.4379 O   0  0  0  0  0  0  0  0  0  0  0  0
    7.2708    2.8145   -0.7987 O   0  0  0  0  0  0  0  0  0  0  0  0
    6.4581    1.6805   -0.8982 C   0  0  0  0  0  0  0  0  0  0  0  0
    7.0571    0.4331   -0.7052 C   0  0  0  0  0  0  0  0  0  0  0  0
    6.2845   -0.7216   -0.8107 C   0  0  0  0  0  0  0  0  0  0  0  0
    4.9285   -0.6264   -1.1248 C   0  0  0  0  0  0  0  0  0  0  0  0
    4.3402    0.6242   -1.3365 C   0  0  0  0  0  0  0  0  0  0  0  0
    5.0997    1.7959   -1.2230 C   0  0  0  0  0  0  0  0  0  0  0  0
    4.4731    3.0983   -1.4640 C   0  0  0  0  0  0  0  0  0  0  0  0
    3.4979    3.5730   -0.6743 C   0  0  0  0  0  0  0  0  0  0  0  0
    2.8738    4.8780   -0.9779 C   0  0  0  0  0  0  0  0  0  0  0  0
    3.0120    5.5246   -2.0820 N   0  0  0  0  0  0  0  0  0  0  0  0
    2.3652    6.7167   -2.2541 C   0  0  0  0  0  0  0  0  0  0  0  0
    2.4792    7.3917   -3.2702 O   0  0  0  0  0  0  0  0  0  0  0  0
    1.4928    7.2058   -1.1787 C   0  0  0  0  0  0  0  0  0  0  0  0
    0.7739    8.3995   -1.2914 C   0  0  0  0  0  0  0  0  0  0  0  0
   -0.0455    8.8115   -0.2397 C   0  0  0  0  0  0  0  0  0  0  0  0
   -0.1382    8.0343    0.9181 C   0  0  0  0  0  0  0  0  0  0  0  0
    0.5924    6.8486    1.0310 C   0  0  0  0  0  0  0  0  0  0  0  0
    1.4017    6.4417   -0.0279 C   0  0  0  0  0  0  0  0  0  0  0  0
    2.1070    5.2475    0.1114 O   0  0  0  0  0  0  0  0  0  0  0  0
    8.3772    4.8119    1.5563 H   0  0  0  0  0  0  0  0  0  0  0  0
    7.7575    5.3759   -0.0171 H   0  0  0  0  0  0  0  0  0  0  0  0
    9.1577    4.2546    0.0709 H   0  0  0  0  0  0  0  0  0  0  0  0
    8.1124    0.3605   -0.4615 H   0  0  0  0  0  0  0  0  0  0  0  0
    6.7358   -1.6966   -0.6451 H   0  0  0  0  0  0  0  0  0  0  0  0
    4.3240   -1.5265   -1.2053 H   0  0  0  0  0  0  0  0  0  0  0  0
    3.2850    0.6764   -1.5964 H   0  0  0  0  0  0  0  0  0  0  0  0
    4.8449    3.6533   -2.3225 H   0  0  0  0  0  0  0  0  0  0  0  0
    3.1401    3.0310    0.1944 H   0  0  0  0  0  0  0  0  0  0  0  0
    0.8525    9.0038   -2.1926 H   0  0  0  0  0  0  0  0  0  0  0  0
   -0.6112    9.7369   -0.3262 H   0  0  0  0  0  0  0  0  0  0  0  0
   -0.7778    8.3604    1.7351 H   0  0  0  0  0  0  0  0  0  0  0  0
    0.5271    6.2526    1.9373 H   0  0  0  0  0  0  0  0  0  0  0  0
  1  2  1  0  0  0  0
  1 24  1  0  0  0  0
  1 25  1  0  0  0  0
  1 26  1  0  0  0  0
  2  3  2  0  0  0  0
  2  4  1  0  0  0  0
  4  5  1  0  0  0  0
  5  6  2  0  0  0  0
  5 10  1  0  0  0  0
  6  7  1  0  0  0  0
  6 27  1  0  0  0  0
  7  8  2  0  0  0  0
  7 28  1  0  0  0  0
  8  9  1  0  0  0  0
  8 29  1  0  0  0  0
  9 10  2  0  0  0  0
  9 30  1  0  0  0  0
 10 11  1  0  0  0  0
 11 12  2  0  0  0  0
 11 31  1  0  0  0  0
 12 13  1  0  0  0  0
 12 32  1  0  0  0  0
 13 14  2  0  0  0  0
 13 23  1  0  0  0  0
 14 15  1  0  0  0  0
 15 16  2  0  0  0  0
 15 17  1  0  0  0  0
 17 18  2  0  0  0  0
 17 22  1  0  0  0  0
 18 19  1  0  0  0  0
 18 33  1  0  0  0  0
 19 20  2  0  0  0  0
 19 34  1  0  0  0  0
 20 21  1  0  0  0  0
 20 35  1  0  0  0  0
 21 22  2  0  0  0  0
 21 36  1  0  0  0  0
 22 23  1  0  0  0  0
M  END
