
 OpenBabel10072620063D

 53 56  0  0  0  0  0  0  0  0999 V2000
    7.3519   -3.5902   -2.9299 C   0  0  0  0  0  0  0  0  0  0  0  0
    5.9014   -3.7042   -3.2452 C   0  0  0  0  0  0  0  0  0  0  0  0
    4.7762   -3.3282   -2.5202 C   0  0  0  0  0  0  0  0  0  0  0  0
    3.6374   -3.6011   -3.3519 C   0  0  0  0  0  0  0  0  0  0  0  0
    4.1075   -4.2285   -4.5103 C   0  0  0  0  0  0  0  0  0  0  0  0
    5.4769   -4.2696   -4.4182 N   0  0  0  0  0  0  0  0  0  0  0  0
    3.2618   -4.6866   -5.5288 C   0  0  0  0  0  0  0  0  0  0  0  0
    1.8922   -4.4639   -5.3827 C   0  0  0  0  0  0  0  0  0  0  0  0
    1.4032   -3.8169   -4.2557 C   0  0  0  0  0  0  0  0  0  0  0  0
    2.2503   -3.3864   -3.2342 C   0  0  0  0  0  0  0  0  0  0  0  0
    0.0854   -3.6077   -4.1419 F   0  0  0  0  0  0  0  0  0  0  0  0
    4.7936   -2.7277   -1.1405 C   0  0  0  0  0  0  0  0  0  0  0  0
    3.8699   -3.4009   -0.1058 C   0  0  0  0  0  0  0  0  0  0  0  0
    3.7714   -4.8755   -0.1816 N   0  0  0  0  0  0  0  0  0  0  0  0
    2.4048   -5.4310   -0.1355 C   0  0  0  0  0  0  0  0  0  0  0  0
    1.8479   -5.6949    1.2430 C   0  0  0  0  0  0  0  0  0  0  0  0
    2.4946   -5.3820    2.4332 C   0  0  0  0  0  0  0  0  0  0  0  0
    1.9863   -5.6319    3.6656 N   0  0  0  0  0  0  0  0  0  0  0  0
    0.7826   -6.2353    3.7209 C   0  0  0  0  0  0  0  0  0  0  0  0
    0.0507   -6.5862    2.6012 C   0  0  0  0  0  0  0  0  0  0  0  0
    0.5935   -6.3097    1.3497 C   0  0  0  0  0  0  0  0  0  0  0  0
    4.8807   -5.7337    0.0006 C   0  0  0  0  0  0  0  0  0  0  0  0
    6.3096   -5.2863    0.7600 S   0  0  0  0  0  0  0  0  0  0  0  0
    4.6673   -6.9703   -0.5848 N   0  0  0  0  0  0  0  0  0  0  0  0
    5.1188   -8.2593   -0.2415 C   0  0  0  0  0  0  0  0  0  0  0  0
    5.5853   -8.6125    1.0256 C   0  0  0  0  0  0  0  0  0  0  0  0
    5.9337   -9.9380    1.2865 C   0  0  0  0  0  0  0  0  0  0  0  0
    5.8251  -10.9222    0.3102 C   0  0  0  0  0  0  0  0  0  0  0  0
    5.3420  -10.5821   -0.9499 C   0  0  0  0  0  0  0  0  0  0  0  0
    4.9828   -9.2579   -1.2176 C   0  0  0  0  0  0  0  0  0  0  0  0
    6.3606  -10.2767    2.5105 F   0  0  0  0  0  0  0  0  0  0  0  0
    7.5518   -2.7182   -2.2982 H   0  0  0  0  0  0  0  0  0  0  0  0
    7.9461   -3.4735   -3.8436 H   0  0  0  0  0  0  0  0  0  0  0  0
    7.6956   -4.4857   -2.4038 H   0  0  0  0  0  0  0  0  0  0  0  0
    6.0875   -4.6436   -5.1346 H   0  0  0  0  0  0  0  0  0  0  0  0
    3.6536   -5.1817   -6.4127 H   0  0  0  0  0  0  0  0  0  0  0  0
    1.1987   -4.7800   -6.1560 H   0  0  0  0  0  0  0  0  0  0  0  0
    1.8253   -2.8799   -2.3748 H   0  0  0  0  0  0  0  0  0  0  0  0
    4.5346   -1.6618   -1.2133 H   0  0  0  0  0  0  0  0  0  0  0  0
    5.8179   -2.7481   -0.7523 H   0  0  0  0  0  0  0  0  0  0  0  0
    2.8676   -2.9839   -0.2471 H   0  0  0  0  0  0  0  0  0  0  0  0
    4.1743   -3.1166    0.9074 H   0  0  0  0  0  0  0  0  0  0  0  0
    2.3755   -6.3814   -0.6795 H   0  0  0  0  0  0  0  0  0  0  0  0
    1.7293   -4.7541   -0.6718 H   0  0  0  0  0  0  0  0  0  0  0  0
    3.4703   -4.9038    2.4488 H   0  0  0  0  0  0  0  0  0  0  0  0
    0.4124   -6.4352    4.7220 H   0  0  0  0  0  0  0  0  0  0  0  0
   -0.9145   -7.0644    2.7007 H   0  0  0  0  0  0  0  0  0  0  0  0
    0.0396   -6.5953    0.4584 H   0  0  0  0  0  0  0  0  0  0  0  0
    4.2115   -6.8927   -1.4875 H   0  0  0  0  0  0  0  0  0  0  0  0
    5.6517   -7.9016    1.8396 H   0  0  0  0  0  0  0  0  0  0  0  0
    6.1009  -11.9456    0.5437 H   0  0  0  0  0  0  0  0  0  0  0  0
    5.2355  -11.3446   -1.7167 H   0  0  0  0  0  0  0  0  0  0  0  0
    4.5960   -9.0167   -2.2059 H   0  0  0  0  0  0  0  0  0  0  0  0
  1  2  1  0  0  0  0
  1 32  1  0  0  0  0
  1 33  1  0  0  0  0
  1 34  1  0  0  0  0
  2  3  2  0  0  0  0
  2  6  1  0  0  0  0
  3  4  1  0  0  0  0
  3 12  1  0  0  0  0
  4  5  2  0  0  0  0
  4 10  1  0  0  0  0
  5  6  1  0  0  0  0
  5  7  1  0  0  0  0
  6 35  1  0  0  0  0
  7  8  2  0  0  0  0
  7 36  1  0  0  0  0
  8  9  1  0  0  0  0
  8 37  1  0  0  0  0
  9 10  2  0  0  0  0
  9 11  1  0  0  0  0
 10 38  1  0  0  0  0
 12 13  1  0  0  0  0
 12 39  1  0  0  0  0
 12 40  1  0  0  0  0
 13 14  1  0  0  0  0
 13 41  1  0  0  0  0
 13 42  1  0  0  0  0
 14 15  1  0  0  0  0
 14 22  1  0  0  0  0
 15 16  1  0  0  0  0
 15 43  1  0  0  0  0
 15 44  1  0  0  0  0
 16 17  2  0  0  0  0
 16 21  1  0  0  0  0
 17 18  1  0  0  0  0
 17 45  1  0  0  0  0
 18 19  2  0  0  0  0
 19 20  1  0  0  0  0
 19 46  1  0  0  0  0
 20 21  2  0  0  0  0
 20 47  1  0  0  0  0
 21 48  1  0  0  0  0
 22 23  2  0  0  0  0
 22 24  1  0  0  0  0
 24 25  1  0  0  0  0
 24 49  1  0  0  0  0
 25 26  2  0  0  0  0
 25 30  1  0  0  0  0
 26 27  1  0  0  0  0
 26 50  1  0  0  0  0
 27 28  2  0  0  0  0
 27 31  1  0  0  0  0
 28 29  1  0  0  0  0
 28 51  1  0  0  0  0
 29 30  2  0  0  0  0
 29 52  1  0  0  0  0
 30 53  1  0  0  0  0
M  END
