
 OpenBabel10072619483D

 53 56  0  0  0  0  0  0  0  0999 V2000
    5.2331   -1.0551   -1.5897 C   0  0  0  0  0  0  0  0  0  0  0  0
    4.3389   -0.4539   -0.5484 C   0  0  0  0  0  0  0  0  0  0  0  0
    3.2577   -1.0229    0.0197 C   0  0  0  0  0  0  0  0  0  0  0  0
    2.7353    0.0152    0.9733 C   0  0  0  0  0  0  0  0  0  0  0  0
    1.7400   -0.1350    1.6665 O   0  0  0  0  0  0  0  0  0  0  0  0
    3.5607    1.1394    0.8359 N   0  0  0  0  0  0  0  0  0  0  0  0
    4.6139    0.8368   -0.0675 N   0  0  0  0  0  0  0  0  0  0  0  0
    5.9583    1.0837    0.4869 C   0  0  0  0  0  0  0  0  0  0  0  0
    3.2031    2.4786    1.1485 C   0  0  0  0  0  0  0  0  0  0  0  0
    2.2356    2.7556    2.1242 C   0  0  0  0  0  0  0  0  0  0  0  0
    1.8801    4.0713    2.4406 C   0  0  0  0  0  0  0  0  0  0  0  0
    2.4827    5.1363    1.7791 C   0  0  0  0  0  0  0  0  0  0  0  0
    3.4360    4.8852    0.7972 C   0  0  0  0  0  0  0  0  0  0  0  0
    3.7918    3.5676    0.4856 C   0  0  0  0  0  0  0  0  0  0  0  0
    2.6974   -2.3320   -0.2202 C   0  0  0  0  0  0  0  0  0  0  0  0
    1.6493   -2.8728    0.4201 C   0  0  0  0  0  0  0  0  0  0  0  0
    1.1828   -4.2388    0.0559 C   0  0  0  0  0  0  0  0  0  0  0  0
    1.5502   -4.7986   -0.9715 O   0  0  0  0  0  0  0  0  0  0  0  0
    0.2194   -4.9070    0.9708 C   0  0  0  0  0  0  0  0  0  0  0  0
   -0.7076   -5.8008    0.4204 C   0  0  0  0  0  0  0  0  0  0  0  0
   -1.6199   -6.4653    1.2455 C   0  0  0  0  0  0  0  0  0  0  0  0
   -1.5990   -6.2605    2.6280 C   0  0  0  0  0  0  0  0  0  0  0  0
   -0.6704   -5.3709    3.1780 C   0  0  0  0  0  0  0  0  0  0  0  0
    0.2390   -4.6978    2.3554 C   0  0  0  0  0  0  0  0  0  0  0  0
   -2.7564   -7.1190    3.6770 S   0  0  0  0  0  0  0  0  0  0  0  0
   -1.7135   -8.4224    4.3071 C   0  0  0  0  0  0  0  0  0  0  0  0
   -1.2857   -8.3909    5.6381 C   0  0  0  0  0  0  0  0  0  0  0  0
   -0.4821   -9.4156    6.1441 C   0  0  0  0  0  0  0  0  0  0  0  0
   -0.1069  -10.4784    5.3232 C   0  0  0  0  0  0  0  0  0  0  0  0
   -0.5365  -10.5195    3.9977 C   0  0  0  0  0  0  0  0  0  0  0  0
   -1.3392   -9.4952    3.4908 C   0  0  0  0  0  0  0  0  0  0  0  0
    4.7723   -1.9027   -2.1036 H   0  0  0  0  0  0  0  0  0  0  0  0
    6.1679   -1.4014   -1.1373 H   0  0  0  0  0  0  0  0  0  0  0  0
    5.4743   -0.3118   -2.3574 H   0  0  0  0  0  0  0  0  0  0  0  0
    6.0625    2.0979    0.8818 H   0  0  0  0  0  0  0  0  0  0  0  0
    6.7167    0.9636   -0.2942 H   0  0  0  0  0  0  0  0  0  0  0  0
    6.1799    0.3810    1.2986 H   0  0  0  0  0  0  0  0  0  0  0  0
    1.7474    1.9563    2.6747 H   0  0  0  0  0  0  0  0  0  0  0  0
    1.1299    4.2565    3.2054 H   0  0  0  0  0  0  0  0  0  0  0  0
    2.2043    6.1578    2.0247 H   0  0  0  0  0  0  0  0  0  0  0  0
    3.8977    5.7126    0.2638 H   0  0  0  0  0  0  0  0  0  0  0  0
    4.5144    3.4086   -0.3099 H   0  0  0  0  0  0  0  0  0  0  0  0
    3.1849   -2.9276   -0.9901 H   0  0  0  0  0  0  0  0  0  0  0  0
    1.1042   -2.3489    1.1946 H   0  0  0  0  0  0  0  0  0  0  0  0
   -0.7258   -5.9786   -0.6535 H   0  0  0  0  0  0  0  0  0  0  0  0
   -2.3399   -7.1483    0.8008 H   0  0  0  0  0  0  0  0  0  0  0  0
   -0.6415   -5.2011    4.2520 H   0  0  0  0  0  0  0  0  0  0  0  0
    0.9641   -4.0328    2.8175 H   0  0  0  0  0  0  0  0  0  0  0  0
   -1.5740   -7.5707    6.2909 H   0  0  0  0  0  0  0  0  0  0  0  0
   -0.1521   -9.3861    7.1793 H   0  0  0  0  0  0  0  0  0  0  0  0
    0.5170  -11.2769    5.7174 H   0  0  0  0  0  0  0  0  0  0  0  0
   -0.2493  -11.3502    3.3580 H   0  0  0  0  0  0  0  0  0  0  0  0
   -1.6697   -9.5437    2.4564 H   0  0  0  0  0  0  0  0  0  0  0  0
  1  2  1  0  0  0  0
  1 32  1  0  0  0  0
  1 33  1  0  0  0  0
  1 34  1  0  0  0  0
  2  3  2  0  0  0  0
  2  7  1  0  0  0  0
  3  4  1  0  0  0  0
  3 15  1  0  0  0  0
  4  5  2  0  0  0  0
  4  6  1  0  0  0  0
  6  7  1  0  0  0  0
  6  9  1  0  0  0  0
  7  8  1  0  0  0  0
  8 35  1  0  0  0  0
  8 36  1  0  0  0  0
  8 37  1  0  0  0  0
  9 10  2  0  0  0  0
  9 14  1  0  0  0  0
 10 11  1  0  0  0  0
 10 38  1  0  0  0  0
 11 12  2  0  0  0  0
 11 39  1  0  0  0  0
 12 13  1  0  0  0  0
 12 40  1  0  0  0  0
 13 14  2  0  0  0  0
 13 41  1  0  0  0  0
 14 42  1  0  0  0  0
 15 16  2  0  0  0  0
 15 43  1  0  0  0  0
 16 17  1  0  0  0  0
 16 44  1  0  0  0  0
 17 18  2  0  0  0  0
 17 19  1  0  0  0  0
 19 20  2  0  0  0  0
 19 24  1  0  0  0  0
 20 21  1  0  0  0  0
 20 45  1  0  0  0  0
 21 22  2  0  0  0  0
 21 46  1  0  0  0  0
 22 23  1  0  0  0  0
 22 25  1  0  0  0  0
 23 24  2  0  0  0  0
 23 47  1  0  0  0  0
 24 48  1  0  0  0  0
 25 26  1  0  0  0  0
 26 27  2  0  0  0  0
 26 31  1  0  0  0  0
 27 28  1  0  0  0  0
 27 49  1  0  0  0  0
 28 29  2  0  0  0  0
 28 50  1  0  0  0  0
 29 30  1  0  0  0  0
 29 51  1  0  0  0  0
 30 31  2  0  0  0  0
 30 52  1  0  0  0  0
 31 53  1  0  0  0  0
M  END
