
 OpenBabel10072620013D

233234  0  0  1  0  0  0  0  0999 V2000
   74.0668  146.1344   98.8178 C   0  0  0  0  0  0  0  0  0  0  0  0
   75.4114  146.1377   98.1100 C   0  0  3  0  0  0  0  0  0  0  0  0
   76.5569  145.4390   98.9151 C   0  0  0  0  0  0  0  0  0  0  0  0
   76.9106  143.9684   99.2010 C   0  0  0  0  0  0  0  0  0  0  0  0
   76.6125  143.1575  100.4313 C   0  0  0  0  0  0  0  0  0  0  0  0
   75.3018  143.4965  101.0668 C   0  0  0  0  0  0  0  0  0  0  0  0
   75.1693  143.0249  102.4982 C   0  0  3  0  0  0  0  0  0  0  0  0
   74.0062  143.7381  103.2319 C   0  0  3  0  0  0  0  0  0  0  0  0
   72.5876  143.0665  103.3615 C   0  0  3  0  0  0  0  0  0  0  0  0
   71.1061  143.2971  102.9770 C   0  0  0  0  0  0  0  0  0  0  0  0
   70.0149  142.6881  102.0754 C   0  0  0  0  0  0  0  0  0  0  0  0
   69.1399  141.4429  102.4372 C   0  0  0  0  0  0  0  0  0  0  0  0
   68.3105  140.2329  101.8385 C   0  0  0  0  0  0  0  0  0  0  0  0
   68.9661  138.9264  102.1379 C   0  0  0  0  0  0  0  0  0  0  0  0
   69.3742  137.6408  101.4432 C   0  0  0  0  0  0  0  0  0  0  0  0
   69.6535  136.6018  102.0064 O   0  0  0  0  0  0  0  0  0  0  0  0
   69.7172  137.8964  100.1866 O   0  0  0  0  0  0  0  0  0  0  0  0
   71.0339  137.8715   99.4824 C   0  0  3  0  0  0  0  0  0  0  0  0
   70.4313  137.8881   98.0396 C   0  0  3  0  0  0  0  0  0  0  0  0
   71.3406  137.6273   96.8156 C   0  0  3  0  0  0  0  0  0  0  0  0
   71.7876  138.6208   95.7216 C   0  0  0  0  0  0  0  0  0  0  0  0
   71.0028  139.9116   95.5331 C   0  0  3  0  0  0  0  0  0  0  0  0
   71.2874  140.6109   94.2270 C   0  0  0  0  0  0  0  0  0  0  0  0
   71.6279  142.1092   94.1673 C   0  0  3  0  0  0  0  0  0  0  0  0
   72.9598  142.7736   94.5667 C   0  0  3  0  0  0  0  0  0  0  0  0
   73.4493  143.5170   95.8275 C   0  0  3  0  0  0  0  0  0  0  0  0
   74.8820  143.0699   96.1661 C   0  0  3  0  0  0  0  0  0  0  0  0
   76.0120  143.3034   95.1320 C   0  0  3  0  0  0  0  0  0  0  0  0
   77.2735  143.7629   95.7486 C   0  0  0  0  0  0  0  0  0  0  0  0
   78.4397  143.7575   95.1171 C   0  0  0  0  0  0  0  0  0  0  0  0
   78.5251  143.8301   93.6115 C   0  0  0  0  0  0  0  0  0  0  0  0
   79.9383  143.8849   93.0940 C   0  0  0  0  0  0  0  0  0  0  0  0
   80.4313  144.8009   91.9966 C   0  0  0  0  0  0  0  0  0  0  0  0
   79.9417  145.9516   91.4844 C   0  0  0  0  0  0  0  0  0  0  0  0
   80.5513  146.8166   90.3586 C   0  0  3  0  0  0  0  0  0  0  0  0
   80.7463  148.3420   90.6591 C   0  0  0  0  0  0  0  0  0  0  0  0
   82.1327  148.8144   91.1175 C   0  0  0  0  0  0  0  0  0  0  0  0
   82.4139  149.8723   91.9044 C   0  0  0  0  0  0  0  0  0  0  0  0
   83.7025  149.9958   92.7687 C   0  0  0  0  0  0  0  0  0  0  0  0
   83.3022  150.0670   94.3053 C   0  0  3  0  0  0  0  0  0  0  0  0
   84.2847  150.2986   95.5480 C   0  0  3  0  0  0  0  0  0  0  0  0
   83.5601  150.2816   96.9498 C   0  0  3  0  0  0  0  0  0  0  0  0
   82.1106  150.5980   97.2383 C   0  0  3  0  0  0  0  0  0  0  0  0
   81.7530  150.0568   98.7307 C   0  0  0  0  0  0  0  0  0  0  0  0
   80.3149  150.2343   99.3032 C   0  0  0  0  0  0  0  0  0  0  0  0
   79.2555  150.3288   98.4747 C   0  0  0  0  0  0  0  0  0  0  0  0
   77.7412  150.6473   98.5188 C   0  0  3  0  0  0  0  0  0  0  0  0
   77.0370  149.7175   97.5140 C   0  0  0  0  0  0  0  0  0  0  0  0
   76.9113  148.2972   98.0753 C   0  0  3  0  0  0  0  0  0  0  0  0
   75.7594  147.5411   97.4542 C   0  0  3  0  0  0  0  0  0  0  0  0
   74.6476  148.4312   97.4403 O   0  0  0  0  0  0  0  0  0  0  0  0
   78.2257  147.5704   97.9925 C   0  0  0  0  0  0  0  0  0  0  0  0
   76.7410  150.5992   99.6801 C   0  0  0  0  0  0  0  0  0  0  0  0
   79.5297  149.9625   97.1551 O   0  0  0  0  0  0  0  0  0  0  0  0
   80.3365  150.3714  100.8091 C   0  0  0  0  0  0  0  0  0  0  0  0
   82.0134  151.9766   97.4802 O   0  0  0  0  0  0  0  0  0  0  0  0
   82.1382  153.0036   96.5589 C   0  0  2  0  0  0  0  0  0  0  0  0
   83.4474  153.3477   95.8046 C   0  0  2  0  0  0  0  0  0  0  0  0
   84.6219  153.8725   96.6752 C   0  0  2  0  0  0  0  0  0  0  0  0
   84.1339  154.8461   97.7706 C   0  0  1  0  0  0  0  0  0  0  0  0
   82.8748  154.2856   98.4210 C   0  0  2  0  0  0  0  0  0  0  0  0
   81.8557  154.1426   97.3940 O   0  0  0  0  0  0  0  0  0  0  0  0
   82.3180  155.1694   99.5300 C   0  0  0  0  0  0  0  0  0  0  0  0
   81.2213  154.5173  100.1774 O   0  0  0  0  0  0  0  0  0  0  0  0
   85.1513  155.0402   98.7575 O   0  0  0  0  0  0  0  0  0  0  0  0
   85.5636  154.5720   95.8255 O   0  0  0  0  0  0  0  0  0  0  0  0
   83.1778  154.4418   94.8749 O   0  0  0  0  0  0  0  0  0  0  0  0
   84.2676  151.1307   97.8533 O   0  0  0  0  0  0  0  0  0  0  0  0
   85.2494  149.1659   95.8737 C   0  0  0  0  0  0  0  0  0  0  0  0
   82.5610  148.8657   94.5973 O   0  0  0  0  0  0  0  0  0  0  0  0
   81.4962  150.8878   92.0278 O   0  0  0  0  0  0  0  0  0  0  0  0
   81.9021  146.4177   89.8193 C   0  0  0  0  0  0  0  0  0  0  0  0
   78.7553  146.5012   91.9383 O   0  0  0  0  0  0  0  0  0  0  0  0
   81.7760  144.2478   91.5994 C   0  0  0  0  0  0  0  0  0  0  0  0
   79.6055  143.7080   95.8567 O   0  0  0  0  0  0  0  0  0  0  0  0
   75.8581  144.0569   93.9709 O   0  0  0  0  0  0  0  0  0  0  0  0
   75.0120  141.6070   96.5672 C   0  0  0  0  0  0  0  0  0  0  0  0
   73.6252  144.9306   95.6928 O   0  0  0  0  0  0  0  0  0  0  0  0
   73.2055  143.7399   93.4187 C   0  0  0  0  0  0  0  0  0  0  0  0
   70.5884  143.0220   93.8052 O   0  0  0  0  0  0  0  0  0  0  0  0
   71.2975  140.7835   96.6055 O   0  0  0  0  0  0  0  0  0  0  0  0
   70.6843  136.5754   96.0695 O   0  0  0  0  0  0  0  0  0  0  0  0
   69.4568  139.1336   98.0531 C   0  0  0  0  0  0  0  0  0  0  0  0
   72.1873  137.0105  100.1656 C   0  0  3  0  0  0  0  0  0  0  0  0
   73.3557  136.4882   99.3238 C   0  0  0  0  0  0  0  0  0  0  0  0
   72.9382  137.8916  101.2693 C   0  0  0  0  0  0  0  0  0  0  0  0
   72.0169  138.2146  102.4031 C   0  0  0  0  0  0  0  0  0  0  0  0
   72.3297  139.2945  103.4142 C   0  0  0  0  0  0  0  0  0  0  0  0
   71.1690  139.5368  104.4032 C   0  0  0  0  0  0  0  0  0  0  0  0
   70.6234  138.3056  105.1238 C   0  0  0  0  0  0  0  0  0  0  0  0
   71.7282  137.7004  105.9493 C   0  0  0  0  0  0  0  0  0  0  0  0
   71.2150  136.5479  106.6654 N   0  0  0  0  0  0  0  0  0  0  0  0
   72.0872  135.8851  107.3295 C   0  0  0  0  0  0  0  0  0  0  0  0
   73.4211  136.0905  107.4246 N   0  0  0  0  0  0  0  0  0  0  0  0
   71.6838  134.8301  108.0611 N   0  0  0  0  0  0  0  0  0  0  0  0
   72.3233  143.7269  104.6744 O   0  0  0  0  0  0  0  0  0  0  0  0
   73.9707  145.2448  102.9483 C   0  0  0  0  0  0  0  0  0  0  0  0
   76.3923  143.3628  103.1932 O   0  0  0  0  0  0  0  0  0  0  0  0
   73.7101  145.1095   98.9348 H   0  0  0  0  0  0  0  0  0  0  0  0
   73.2989  146.6636   98.2383 H   0  0  0  0  0  0  0  0  0  0  0  0
   74.1350  146.6104   99.7986 H   0  0  0  0  0  0  0  0  0  0  0  0
   75.2928  145.5427   97.2190 H   0  0  0  0  0  0  0  0  0  0  0  0
   77.3436  145.5554   98.1746 H   0  0  0  0  0  0  0  0  0  0  0  0
   76.8303  146.0089   99.8112 H   0  0  0  0  0  0  0  0  0  0  0  0
   77.9931  144.0636   99.3491 H   0  0  0  0  0  0  0  0  0  0  0  0
   76.8170  143.2986   98.3562 H   0  0  0  0  0  0  0  0  0  0  0  0
   77.4549  143.3165  101.1141 H   0  0  0  0  0  0  0  0  0  0  0  0
   76.6641  142.0917  100.1736 H   0  0  0  0  0  0  0  0  0  0  0  0
   75.2670  144.5763  101.0729 H   0  0  0  0  0  0  0  0  0  0  0  0
   74.4667  143.1020  100.4985 H   0  0  0  0  0  0  0  0  0  0  0  0
   75.1056  141.9345  102.5526 H   0  0  0  0  0  0  0  0  0  0  0  0
   74.4008  143.6781  104.2666 H   0  0  0  0  0  0  0  0  0  0  0  0
   72.7498  142.0154  103.5405 H   0  0  0  0  0  0  0  0  0  0  0  0
   70.5820  143.0391  103.9202 H   0  0  0  0  0  0  0  0  0  0  0  0
   71.0134  144.3859  102.8523 H   0  0  0  0  0  0  0  0  0  0  0  0
   69.2517  143.4314  102.3988 H   0  0  0  0  0  0  0  0  0  0  0  0
   70.1561  142.8847  101.0246 H   0  0  0  0  0  0  0  0  0  0  0  0
   68.2459  141.9888  102.1783 H   0  0  0  0  0  0  0  0  0  0  0  0
   69.1479  141.3263  103.5223 H   0  0  0  0  0  0  0  0  0  0  0  0
   67.3838  140.2682  102.4412 H   0  0  0  0  0  0  0  0  0  0  0  0
   68.0325  140.3137  100.8003 H   0  0  0  0  0  0  0  0  0  0  0  0
   68.8911  138.6953  103.1938 H   0  0  0  0  0  0  0  0  0  0  0  0
   69.8939  139.4085  101.9397 H   0  0  0  0  0  0  0  0  0  0  0  0
   71.3988  138.8950   99.5651 H   0  0  0  0  0  0  0  0  0  0  0  0
   69.7273  137.0456   98.0125 H   0  0  0  0  0  0  0  0  0  0  0  0
   72.2539  137.1567   97.1660 H   0  0  0  0  0  0  0  0  0  0  0  0
   71.8620  138.0677   94.7700 H   0  0  0  0  0  0  0  0  0  0  0  0
   72.7997  138.9575   95.9537 H   0  0  0  0  0  0  0  0  0  0  0  0
   69.9495  139.6901   95.4763 H   0  0  0  0  0  0  0  0  0  0  0  0
   72.0822  140.0423   93.7230 H   0  0  0  0  0  0  0  0  0  0  0  0
   70.4558  140.4818   93.5269 H   0  0  0  0  0  0  0  0  0  0  0  0
   72.0199  141.8980   93.1739 H   0  0  0  0  0  0  0  0  0  0  0  0
   73.5940  141.8927   94.5200 H   0  0  0  0  0  0  0  0  0  0  0  0
   72.8003  143.3980   96.7006 H   0  0  0  0  0  0  0  0  0  0  0  0
   75.1180  143.6140   97.0758 H   0  0  0  0  0  0  0  0  0  0  0  0
   76.2987  142.3149   94.7757 H   0  0  0  0  0  0  0  0  0  0  0  0
   77.3030  143.9388   96.7955 H   0  0  0  0  0  0  0  0  0  0  0  0
   77.9679  144.7157   93.3152 H   0  0  0  0  0  0  0  0  0  0  0  0
   78.0073  142.9748   93.1573 H   0  0  0  0  0  0  0  0  0  0  0  0
   80.6255  144.0911   93.9172 H   0  0  0  0  0  0  0  0  0  0  0  0
   80.1791  142.8730   92.7586 H   0  0  0  0  0  0  0  0  0  0  0  0
   79.8486  146.7402   89.5207 H   0  0  0  0  0  0  0  0  0  0  0  0
   80.5748  148.8393   89.7096 H   0  0  0  0  0  0  0  0  0  0  0  0
   79.9869  148.6942   91.3587 H   0  0  0  0  0  0  0  0  0  0  0  0
   83.0214  148.3227   90.7520 H   0  0  0  0  0  0  0  0  0  0  0  0
   84.3052  150.8350   92.3980 H   0  0  0  0  0  0  0  0  0  0  0  0
   84.2960  149.0887   92.6320 H   0  0  0  0  0  0  0  0  0  0  0  0
   82.5813  150.8875   94.3579 H   0  0  0  0  0  0  0  0  0  0  0  0
   84.9715  151.1646   95.4208 H   0  0  0  0  0  0  0  0  0  0  0  0
   83.6879  149.2839   97.3515 H   0  0  0  0  0  0  0  0  0  0  0  0
   81.4505  150.2467   96.4561 H   0  0  0  0  0  0  0  0  0  0  0  0
   82.2898  150.7216   99.4146 H   0  0  0  0  0  0  0  0  0  0  0  0
   82.1823  149.0695   98.9667 H   0  0  0  0  0  0  0  0  0  0  0  0
   77.6976  151.6804   98.1552 H   0  0  0  0  0  0  0  0  0  0  0  0
   77.4541  149.7152   96.5025 H   0  0  0  0  0  0  0  0  0  0  0  0
   76.0264  150.0780   97.3490 H   0  0  0  0  0  0  0  0  0  0  0  0
   76.6042  148.3662   99.0994 H   0  0  0  0  0  0  0  0  0  0  0  0
   75.9927  147.3912   96.3927 H   0  0  0  0  0  0  0  0  0  0  0  0
   74.4502  148.7129   98.3488 H   0  0  0  0  0  0  0  0  0  0  0  0
   79.1042  148.1155   98.2580 H   0  0  0  0  0  0  0  0  0  0  0  0
   78.3699  147.1351   97.0013 H   0  0  0  0  0  0  0  0  0  0  0  0
   78.3136  146.8545   98.7934 H   0  0  0  0  0  0  0  0  0  0  0  0
   76.9499  149.7778  100.3636 H   0  0  0  0  0  0  0  0  0  0  0  0
   75.7272  150.3701   99.2886 H   0  0  0  0  0  0  0  0  0  0  0  0
   76.5822  151.5686  100.1416 H   0  0  0  0  0  0  0  0  0  0  0  0
   80.0442  149.1335   97.1640 H   0  0  0  0  0  0  0  0  0  0  0  0
   81.1745  149.7989  101.2418 H   0  0  0  0  0  0  0  0  0  0  0  0
   79.4332  149.9880  101.2850 H   0  0  0  0  0  0  0  0  0  0  0  0
   80.5003  151.4154  101.0938 H   0  0  0  0  0  0  0  0  0  0  0  0
   81.3451  152.9187   95.8070 H   0  0  0  0  0  0  0  0  0  0  0  0
   83.7090  152.5199   95.1537 H   0  0  0  0  0  0  0  0  0  0  0  0
   85.2086  153.0776   97.1381 H   0  0  0  0  0  0  0  0  0  0  0  0
   83.9113  155.8177   97.3143 H   0  0  0  0  0  0  0  0  0  0  0  0
   83.1037  153.3375   98.9231 H   0  0  0  0  0  0  0  0  0  0  0  0
   83.0736  155.3704  100.2947 H   0  0  0  0  0  0  0  0  0  0  0  0
   81.9508  156.1098   99.1182 H   0  0  0  0  0  0  0  0  0  0  0  0
   80.6698  154.1366   99.4669 H   0  0  0  0  0  0  0  0  0  0  0  0
   85.2544  155.9990   98.8905 H   0  0  0  0  0  0  0  0  0  0  0  0
   85.0274  154.8958   95.0720 H   0  0  0  0  0  0  0  0  0  0  0  0
   82.3047  154.8068   95.1157 H   0  0  0  0  0  0  0  0  0  0  0  0
   83.5482  151.6346   98.2900 H   0  0  0  0  0  0  0  0  0  0  0  0
   86.0680  149.1374   95.1721 H   0  0  0  0  0  0  0  0  0  0  0  0
   84.7158  148.2226   95.9662 H   0  0  0  0  0  0  0  0  0  0  0  0
   85.6670  149.3262   96.8798 H   0  0  0  0  0  0  0  0  0  0  0  0
   83.0549  148.1216   94.2074 H   0  0  0  0  0  0  0  0  0  0  0  0
   80.8603  150.7984   91.2908 H   0  0  0  0  0  0  0  0  0  0  0  0
   81.9481  145.3928   89.4710 H   0  0  0  0  0  0  0  0  0  0  0  0
   82.6303  146.5567   90.6190 H   0  0  0  0  0  0  0  0  0  0  0  0
   82.1971  147.1022   89.0194 H   0  0  0  0  0  0  0  0  0  0  0  0
   78.7192  146.3648   92.9002 H   0  0  0  0  0  0  0  0  0  0  0  0
   82.1561  143.5388   92.3390 H   0  0  0  0  0  0  0  0  0  0  0  0
   82.5368  145.0208   91.5956 H   0  0  0  0  0  0  0  0  0  0  0  0
   81.7124  143.7091   90.6519 H   0  0  0  0  0  0  0  0  0  0  0  0
   79.3955  143.2850   96.7108 H   0  0  0  0  0  0  0  0  0  0  0  0
   75.2715  144.8201   94.0038 H   0  0  0  0  0  0  0  0  0  0  0  0
   74.9453  140.9433   95.6995 H   0  0  0  0  0  0  0  0  0  0  0  0
   74.2597  141.3155   97.2957 H   0  0  0  0  0  0  0  0  0  0  0  0
   76.0116  141.4537   96.9885 H   0  0  0  0  0  0  0  0  0  0  0  0
   74.5584  145.1174   95.4830 H   0  0  0  0  0  0  0  0  0  0  0  0
   72.9230  144.7504   93.7072 H   0  0  0  0  0  0  0  0  0  0  0  0
   72.6574  143.5318   92.5077 H   0  0  0  0  0  0  0  0  0  0  0  0
   74.2176  143.6642   93.0808 H   0  0  0  0  0  0  0  0  0  0  0  0
   69.7562  142.5520   93.6415 H   0  0  0  0  0  0  0  0  0  0  0  0
   71.4838  140.2421   97.3890 H   0  0  0  0  0  0  0  0  0  0  0  0
   69.7701  136.8591   95.8911 H   0  0  0  0  0  0  0  0  0  0  0  0
   69.9100  140.0057   98.5504 H   0  0  0  0  0  0  0  0  0  0  0  0
   68.5637  138.9267   98.6592 H   0  0  0  0  0  0  0  0  0  0  0  0
   69.0434  139.4281   97.0995 H   0  0  0  0  0  0  0  0  0  0  0  0
   71.7392  136.1430  100.6672 H   0  0  0  0  0  0  0  0  0  0  0  0
   74.0295  137.2998   99.0234 H   0  0  0  0  0  0  0  0  0  0  0  0
   73.0553  135.9089   98.4539 H   0  0  0  0  0  0  0  0  0  0  0  0
   73.9596  135.8019   99.9381 H   0  0  0  0  0  0  0  0  0  0  0  0
   73.2766  138.8246  100.7962 H   0  0  0  0  0  0  0  0  0  0  0  0
   73.8149  137.3880  101.6792 H   0  0  0  0  0  0  0  0  0  0  0  0
   71.6678  137.3025  102.8791 H   0  0  0  0  0  0  0  0  0  0  0  0
   71.2518  138.6322  101.8181 H   0  0  0  0  0  0  0  0  0  0  0  0
   72.4878  140.2214  102.8598 H   0  0  0  0  0  0  0  0  0  0  0  0
   73.2473  139.0638  103.9518 H   0  0  0  0  0  0  0  0  0  0  0  0
   70.3558  139.9718  103.8551 H   0  0  0  0  0  0  0  0  0  0  0  0
   71.4310  140.3121  105.1306 H   0  0  0  0  0  0  0  0  0  0  0  0
   70.2289  137.5546  104.4308 H   0  0  0  0  0  0  0  0  0  0  0  0
   69.7700  138.5837  105.7573 H   0  0  0  0  0  0  0  0  0  0  0  0
   72.0785  138.4580  106.6589 H   0  0  0  0  0  0  0  0  0  0  0  0
   72.5526  137.4121  105.2882 H   0  0  0  0  0  0  0  0  0  0  0  0
   73.7238  137.0226  107.1659 H   0  0  0  0  0  0  0  0  0  0  0  0
   73.8418  135.7921  108.2922 H   0  0  0  0  0  0  0  0  0  0  0  0
   70.7890  134.4949  107.7137 H   0  0  0  0  0  0  0  0  0  0  0  0
   72.3571  134.0893  108.1788 H   0  0  0  0  0  0  0  0  0  0  0  0
   72.0364  144.6419  104.4471 H   0  0  0  0  0  0  0  0  0  0  0  0
   73.4401  145.4390  102.0153 H   0  0  0  0  0  0  0  0  0  0  0  0
   74.9826  145.6650  102.8766 H   0  0  0  0  0  0  0  0  0  0  0  0
   73.4865  145.8023  103.7493 H   0  0  0  0  0  0  0  0  0  0  0  0
   76.5262  144.3260  103.1497 H   0  0  0  0  0  0  0  0  0  0  0  0
  1  2  1  0  0  0  0
  1 99  1  0  0  0  0
  1100  1  0  0  0  0
  1101  1  0  0  0  0
  2  3  1  0  0  0  0
  2 50  1  0  0  0  0
  2102  1  0  0  0  0
  3  4  1  0  0  0  0
  3103  1  0  0  0  0
  3104  1  0  0  0  0
  4  5  1  0  0  0  0
  4105  1  0  0  0  0
  4106  1  0  0  0  0
  5  6  1  0  0  0  0
  5107  1  0  0  0  0
  5108  1  0  0  0  0
  6  7  1  0  0  0  0
  6109  1  0  0  0  0
  6110  1  0  0  0  0
  7  8  1  0  0  0  0
  7 98  1  0  0  0  0
  7111  1  0  0  0  0
  8  9  1  0  0  0  0
  8 97  1  0  0  0  0
  8112  1  0  0  0  0
  9 10  1  0  0  0  0
  9 96  1  0  0  0  0
  9113  1  0  0  0  0
 10 11  1  0  0  0  0
 10114  1  0  0  0  0
 10115  1  0  0  0  0
 11 12  1  0  0  0  0
 11116  1  0  0  0  0
 11117  1  0  0  0  0
 12 13  1  0  0  0  0
 12118  1  0  0  0  0
 12119  1  0  0  0  0
 13 14  1  0  0  0  0
 13120  1  0  0  0  0
 13121  1  0  0  0  0
 14 15  1  0  0  0  0
 14122  1  0  0  0  0
 14123  1  0  0  0  0
 15 16  2  0  0  0  0
 15 17  1  0  0  0  0
 17 18  1  0  0  0  0
 18 19  1  0  0  0  0
 18 84  1  0  0  0  0
 18124  1  0  0  0  0
 19 20  1  0  0  0  0
 19 83  1  0  0  0  0
 19125  1  0  0  0  0
 20 21  1  0  0  0  0
 20 82  1  0  0  0  0
 20126  1  0  0  0  0
 21 22  1  0  0  0  0
 21127  1  0  0  0  0
 21128  1  0  0  0  0
 22 23  1  0  0  0  0
 22 81  1  0  0  0  0
 22129  1  0  0  0  0
 23 24  1  0  0  0  0
 23130  1  0  0  0  0
 23131  1  0  0  0  0
 24 25  1  0  0  0  0
 24 80  1  0  0  0  0
 24132  1  0  0  0  0
 25 26  1  0  0  0  0
 25 79  1  0  0  0  0
 25133  1  0  0  0  0
 26 27  1  0  0  0  0
 26 78  1  0  0  0  0
 26134  1  0  0  0  0
 27 28  1  0  0  0  0
 27 77  1  0  0  0  0
 27135  1  0  0  0  0
 28 29  1  0  0  0  0
 28 76  1  0  0  0  0
 28136  1  0  0  0  0
 29 30  2  3  0  0  0
 29137  1  0  0  0  0
 30 31  1  0  0  0  0
 30 75  1  0  0  0  0
 31 32  1  0  0  0  0
 31138  1  0  0  0  0
 31139  1  0  0  0  0
 32 33  1  0  0  0  0
 32140  1  0  0  0  0
 32141  1  0  0  0  0
 33 34  2  3  0  0  0
 33 74  1  0  0  0  0
 34 35  1  0  0  0  0
 34 73  1  0  0  0  0
 35 36  1  0  0  0  0
 35 72  1  0  0  0  0
 35142  1  0  0  0  0
 36 37  1  0  0  0  0
 36143  1  0  0  0  0
 36144  1  0  0  0  0
 37 38  2  3  0  0  0
 37145  1  0  0  0  0
 38 39  1  0  0  0  0
 38 71  1  0  0  0  0
 39 40  1  0  0  0  0
 39146  1  0  0  0  0
 39147  1  0  0  0  0
 40 41  1  0  0  0  0
 40 70  1  0  0  0  0
 40148  1  0  0  0  0
 41 42  1  0  0  0  0
 41 69  1  0  0  0  0
 41149  1  0  0  0  0
 42 43  1  0  0  0  0
 42 68  1  0  0  0  0
 42150  1  0  0  0  0
 43 44  1  0  0  0  0
 43 56  1  0  0  0  0
 43151  1  0  0  0  0
 44 45  1  0  0  0  0
 44152  1  0  0  0  0
 44153  1  0  0  0  0
 45 46  2  3  0  0  0
 45 55  1  0  0  0  0
 46 47  1  0  0  0  0
 46 54  1  0  0  0  0
 47 48  1  0  0  0  0
 47 53  1  0  0  0  0
 47154  1  0  0  0  0
 48 49  1  0  0  0  0
 48155  1  0  0  0  0
 48156  1  0  0  0  0
 49 50  1  0  0  0  0
 49 52  1  0  0  0  0
 49157  1  0  0  0  0
 50 51  1  0  0  0  0
 50158  1  0  0  0  0
 51159  1  0  0  0  0
 52160  1  0  0  0  0
 52161  1  0  0  0  0
 52162  1  0  0  0  0
 53163  1  0  0  0  0
 53164  1  0  0  0  0
 53165  1  0  0  0  0
 54166  1  0  0  0  0
 55167  1  0  0  0  0
 55168  1  0  0  0  0
 55169  1  0  0  0  0
 56 57  1  0  0  0  0
 57 58  1  0  0  0  0
 57 62  1  0  0  0  0
 57170  1  6  0  0  0
 58 59  1  0  0  0  0
 58 67  1  0  0  0  0
 58171  1  6  0  0  0
 59 60  1  0  0  0  0
 59 66  1  0  0  0  0
 59172  1  1  0  0  0
 60 61  1  0  0  0  0
 60 65  1  0  0  0  0
 60173  1  6  0  0  0
 61 62  1  0  0  0  0
 61 63  1  0  0  0  0
 61174  1  1  0  0  0
 63 64  1  0  0  0  0
 63175  1  0  0  0  0
 63176  1  0  0  0  0
 64177  1  0  0  0  0
 65178  1  0  0  0  0
 66179  1  0  0  0  0
 67180  1  0  0  0  0
 68181  1  0  0  0  0
 69182  1  0  0  0  0
 69183  1  0  0  0  0
 69184  1  0  0  0  0
 70185  1  0  0  0  0
 71186  1  0  0  0  0
 72187  1  0  0  0  0
 72188  1  0  0  0  0
 72189  1  0  0  0  0
 73190  1  0  0  0  0
 74191  1  0  0  0  0
 74192  1  0  0  0  0
 74193  1  0  0  0  0
 75194  1  0  0  0  0
 76195  1  0  0  0  0
 77196  1  0  0  0  0
 77197  1  0  0  0  0
 77198  1  0  0  0  0
 78199  1  0  0  0  0
 79200  1  0  0  0  0
 79201  1  0  0  0  0
 79202  1  0  0  0  0
 80203  1  0  0  0  0
 81204  1  0  0  0  0
 82205  1  0  0  0  0
 83206  1  0  0  0  0
 83207  1  0  0  0  0
 83208  1  0  0  0  0
 84 85  1  0  0  0  0
 84 86  1  0  0  0  0
 84209  1  0  0  0  0
 85210  1  0  0  0  0
 85211  1  0  0  0  0
 85212  1  0  0  0  0
 86 87  1  0  0  0  0
 86213  1  0  0  0  0
 86214  1  0  0  0  0
 87 88  1  0  0  0  0
 87215  1  0  0  0  0
 87216  1  0  0  0  0
 88 89  1  0  0  0  0
 88217  1  0  0  0  0
 88218  1  0  0  0  0
 89 90  1  0  0  0  0
 89219  1  0  0  0  0
 89220  1  0  0  0  0
 90 91  1  0  0  0  0
 90221  1  0  0  0  0
 90222  1  0  0  0  0
 91 92  1  0  0  0  0
 91223  1  0  0  0  0
 91224  1  0  0  0  0
 92 93  2  0  0  0  0
 93 94  1  0  0  0  0
 93 95  1  0  0  0  0
 94225  1  0  0  0  0
 94226  1  0  0  0  0
 95227  1  0  0  0  0
 95228  1  0  0  0  0
 96229  1  0  0  0  0
 97230  1  0  0  0  0
 97231  1  0  0  0  0
 97232  1  0  0  0  0
 98233  1  0  0  0  0
M  END
