
 OpenBabel10072619553D

 22 22  0  0  0  0  0  0  0  0999 V2000
    1.2771   -0.2655   -0.0994 C   0  0  0  0  0  0  0  0  0  0  0  0
    0.4108   -1.2934   -0.4728 C   0  0  0  0  0  0  0  0  0  0  0  0
   -0.9715   -1.1020   -0.4042 C   0  0  0  0  0  0  0  0  0  0  0  0
   -1.4923    0.1212    0.0403 C   0  0  0  0  0  0  0  0  0  0  0  0
   -0.6142    1.1498    0.4118 C   0  0  0  0  0  0  0  0  0  0  0  0
    0.7667    0.9548    0.3403 C   0  0  0  0  0  0  0  0  0  0  0  0
   -2.9543    0.3731    0.1534 C   0  0  0  0  0  0  0  0  0  0  0  0
   -3.4334    1.3389    0.7261 O   0  0  0  0  0  0  0  0  0  0  0  0
   -3.6546   -0.6191   -0.4706 O   0  0  0  0  0  0  0  0  0  0  0  0
   -5.0568   -0.4263   -0.4328 C   0  0  0  0  0  0  0  0  0  0  0  0
   -5.8385   -1.3639    0.1059 C   0  0  0  0  0  0  0  0  0  0  0  0
   -7.1794   -1.2159    0.1192 F   0  0  0  0  0  0  0  0  0  0  0  0
   -5.2860   -2.4694    0.6488 F   0  0  0  0  0  0  0  0  0  0  0  0
   -5.6259    0.7878   -1.0874 C   0  0  0  0  0  0  0  0  0  0  0  0
   -4.7151    1.4280   -1.8688 F   0  0  0  0  0  0  0  0  0  0  0  0
   -6.6611    0.4739   -1.9126 F   0  0  0  0  0  0  0  0  0  0  0  0
   -6.1034    1.6909   -0.1969 F   0  0  0  0  0  0  0  0  0  0  0  0
    2.3526   -0.4189   -0.1490 H   0  0  0  0  0  0  0  0  0  0  0  0
    0.8130   -2.2443   -0.8145 H   0  0  0  0  0  0  0  0  0  0  0  0
   -1.6244   -1.9226   -0.6918 H   0  0  0  0  0  0  0  0  0  0  0  0
   -1.0013    2.1067    0.7571 H   0  0  0  0  0  0  0  0  0  0  0  0
    1.4445    1.7548    0.6315 H   0  0  0  0  0  0  0  0  0  0  0  0
  1  2  2  0  0  0  0
  1  6  1  0  0  0  0
  1 18  1  0  0  0  0
  2  3  1  0  0  0  0
  2 19  1  0  0  0  0
  3  4  2  0  0  0  0
  3 20  1  0  0  0  0
  4  5  1  0  0  0  0
  4  7  1  0  0  0  0
  5  6  2  0  0  0  0
  5 21  1  0  0  0  0
  6 22  1  0  0  0  0
  7  8  2  0  0  0  0
  7  9  1  0  0  0  0
  9 10  1  0  0  0  0
 10 11  2  0  0  0  0
 10 14  1  0  0  0  0
 11 12  1  0  0  0  0
 11 13  1  0  0  0  0
 14 15  1  0  0  0  0
 14 16  1  0  0  0  0
 14 17  1  0  0  0  0
M  END
