
 OpenBabel10072620163D

 30 31  0  0  0  0  0  0  0  0999 V2000
   -1.2233   -1.1766   -0.1553 C   0  0  0  0  0  0  0  0  0  0  0  0
   -0.1782   -2.1063   -0.1822 C   0  0  0  0  0  0  0  0  0  0  0  0
    1.1512   -1.6818   -0.0974 C   0  0  0  0  0  0  0  0  0  0  0  0
    1.4092   -0.3029    0.0293 C   0  0  0  0  0  0  0  0  0  0  0  0
    0.3690    0.6275    0.0598 C   0  0  0  0  0  0  0  0  0  0  0  0
   -0.9453    0.1824   -0.0337 C   0  0  0  0  0  0  0  0  0  0  0  0
   -2.2366    1.3173    0.0068 Cl  0  0  0  0  0  0  0  0  0  0  0  0
    3.0326    0.2893    0.1575 Cl  0  0  0  0  0  0  0  0  0  0  0  0
    2.2489   -2.5708   -0.1233 N   0  0  0  0  0  0  0  0  0  0  0  0
    2.2355   -3.9284   -0.3303 C   0  0  0  0  0  0  0  0  0  0  0  0
    1.2603   -4.6196   -0.5913 O   0  0  0  0  0  0  0  0  0  0  0  0
    3.5040   -4.4535   -0.2300 N   0  0  0  0  0  0  0  0  0  0  0  0
    3.6869   -5.8827   -0.3325 C   0  0  0  0  0  0  0  0  0  0  0  0
    5.1413   -6.2201   -0.4910 C   0  0  0  0  0  0  0  0  0  0  0  0
    5.8196   -6.9572    0.4817 C   0  0  0  0  0  0  0  0  0  0  0  0
    7.1624   -7.2367    0.2819 C   0  0  0  0  0  0  0  0  0  0  0  0
    7.8615   -6.8355   -0.8008 N   0  0  0  0  0  0  0  0  0  0  0  0
    7.1875   -6.1261   -1.7304 C   0  0  0  0  0  0  0  0  0  0  0  0
    5.8461   -5.7987   -1.6233 C   0  0  0  0  0  0  0  0  0  0  0  0
   -2.2505   -1.5270   -0.2275 H   0  0  0  0  0  0  0  0  0  0  0  0
   -0.4378   -3.1574   -0.2674 H   0  0  0  0  0  0  0  0  0  0  0  0
    0.5822    1.6880    0.1583 H   0  0  0  0  0  0  0  0  0  0  0  0
    3.1611   -2.1336   -0.0891 H   0  0  0  0  0  0  0  0  0  0  0  0
    4.1459   -3.9643    0.3756 H   0  0  0  0  0  0  0  0  0  0  0  0
    3.1182   -6.2729   -1.1844 H   0  0  0  0  0  0  0  0  0  0  0  0
    3.2698   -6.3334    0.5761 H   0  0  0  0  0  0  0  0  0  0  0  0
    5.3195   -7.3145    1.3758 H   0  0  0  0  0  0  0  0  0  0  0  0
    7.7275   -7.8108    1.0103 H   0  0  0  0  0  0  0  0  0  0  0  0
    7.7700   -5.8180   -2.5935 H   0  0  0  0  0  0  0  0  0  0  0  0
    5.3584   -5.2273   -2.4074 H   0  0  0  0  0  0  0  0  0  0  0  0
  1  2  2  0  0  0  0
  1  6  1  0  0  0  0
  1 20  1  0  0  0  0
  2  3  1  0  0  0  0
  2 21  1  0  0  0  0
  3  4  2  0  0  0  0
  3  9  1  0  0  0  0
  4  5  1  0  0  0  0
  4  8  1  0  0  0  0
  5  6  2  0  0  0  0
  5 22  1  0  0  0  0
  6  7  1  0  0  0  0
  9 10  1  0  0  0  0
  9 23  1  0  0  0  0
 10 11  2  0  0  0  0
 10 12  1  0  0  0  0
 12 13  1  0  0  0  0
 12 24  1  0  0  0  0
 13 14  1  0  0  0  0
 13 25  1  0  0  0  0
 13 26  1  0  0  0  0
 14 15  2  0  0  0  0
 14 19  1  0  0  0  0
 15 16  1  0  0  0  0
 15 27  1  0  0  0  0
 16 17  2  0  0  0  0
 16 28  1  0  0  0  0
 17 18  1  0  0  0  0
 18 19  2  0  0  0  0
 18 29  1  0  0  0  0
 19 30  1  0  0  0  0
M  END
