
 OpenBabel10072619573D

 34 35  0  0  0  0  0  0  0  0999 V2000
    0.9664    0.2580    0.5088 C   0  0  0  0  0  0  0  0  0  0  0  0
    2.3457    0.1600    0.1664 O   0  0  0  0  0  0  0  0  0  0  0  0
    2.9478   -1.0402    0.4474 C   0  0  0  0  0  0  0  0  0  0  0  0
    2.4019   -2.3190    0.2262 C   0  0  0  0  0  0  0  0  0  0  0  0
    3.1929   -3.4496    0.5164 C   0  0  0  0  0  0  0  0  0  0  0  0
    4.4887   -3.3208    1.0230 C   0  0  0  0  0  0  0  0  0  0  0  0
    5.0127   -2.0456    1.2255 C   0  0  0  0  0  0  0  0  0  0  0  0
    4.2531   -0.9097    0.9362 C   0  0  0  0  0  0  0  0  0  0  0  0
    6.6393   -1.8400    1.8836 S   0  0  0  0  0  0  0  0  0  0  0  0
    6.6177   -0.7701    2.8528 O   0  0  0  0  0  0  0  0  0  0  0  0
    7.2076   -3.1355    2.1717 O   0  0  0  0  0  0  0  0  0  0  0  0
    7.4863   -1.2580    0.5578 N   0  0  0  0  0  0  0  0  0  0  0  0
    1.1293   -2.4988   -0.3516 N   0  0  0  0  0  0  0  0  0  0  0  0
    0.3667   -3.0879    0.4459 N   0  0  0  0  0  0  0  0  0  0  0  0
   -0.9771   -3.3076   -0.1148 C   0  0  0  0  0  0  0  0  0  0  0  0
   -1.9451   -2.5756    0.7832 C   0  0  0  0  0  0  0  0  0  0  0  0
   -1.9809   -1.3472    0.8675 O   0  0  0  0  0  0  0  0  0  0  0  0
   -2.7961   -3.3309    1.5405 N   0  0  0  0  0  0  0  0  0  0  0  0
   -2.9145   -4.6840    1.5176 C   0  0  0  0  0  0  0  0  0  0  0  0
   -3.7362   -5.2694    2.2135 O   0  0  0  0  0  0  0  0  0  0  0  0
   -2.0936   -5.3537    0.6673 N   0  0  0  0  0  0  0  0  0  0  0  0
   -1.1767   -4.8020   -0.1832 C   0  0  0  0  0  0  0  0  0  0  0  0
   -0.5417   -5.5282   -0.9488 O   0  0  0  0  0  0  0  0  0  0  0  0
    0.7479    1.3146    0.6916 H   0  0  0  0  0  0  0  0  0  0  0  0
    0.7226   -0.2910    1.4243 H   0  0  0  0  0  0  0  0  0  0  0  0
    0.3422   -0.0626   -0.3296 H   0  0  0  0  0  0  0  0  0  0  0  0
    2.7900   -4.4438    0.3298 H   0  0  0  0  0  0  0  0  0  0  0  0
    5.0749   -4.2110    1.2417 H   0  0  0  0  0  0  0  0  0  0  0  0
    4.6676    0.0837    1.0953 H   0  0  0  0  0  0  0  0  0  0  0  0
    7.8179   -0.3110    0.7437 H   0  0  0  0  0  0  0  0  0  0  0  0
    8.2278   -1.9119    0.3048 H   0  0  0  0  0  0  0  0  0  0  0  0
   -1.0978   -2.9072   -1.1301 H   0  0  0  0  0  0  0  0  0  0  0  0
   -3.4251   -2.8320    2.1550 H   0  0  0  0  0  0  0  0  0  0  0  0
   -2.2052   -6.3577    0.6268 H   0  0  0  0  0  0  0  0  0  0  0  0
  1  2  1  0  0  0  0
  1 24  1  0  0  0  0
  1 25  1  0  0  0  0
  1 26  1  0  0  0  0
  2  3  1  0  0  0  0
  3  4  2  0  0  0  0
  3  8  1  0  0  0  0
  4  5  1  0  0  0  0
  4 13  1  0  0  0  0
  5  6  2  0  0  0  0
  5 27  1  0  0  0  0
  6  7  1  0  0  0  0
  6 28  1  0  0  0  0
  7  8  2  0  0  0  0
  7  9  1  0  0  0  0
  8 29  1  0  0  0  0
  9 10  2  0  0  0  0
  9 11  2  0  0  0  0
  9 12  1  0  0  0  0
 12 30  1  0  0  0  0
 12 31  1  0  0  0  0
 13 14  2  3  0  0  0
 14 15  1  0  0  0  0
 15 16  1  0  0  0  0
 15 22  1  0  0  0  0
 15 32  1  0  0  0  0
 16 17  2  0  0  0  0
 16 18  1  0  0  0  0
 18 19  1  0  0  0  0
 18 33  1  0  0  0  0
 19 20  2  0  0  0  0
 19 21  1  0  0  0  0
 21 22  1  0  0  0  0
 21 34  1  0  0  0  0
 22 23  2  0  0  0  0
M  END
