
 OpenBabel10072620183D

 37 38  0  0  0  0  0  0  0  0999 V2000
    1.1604   -0.7986    0.6281 C   0  0  0  0  0  0  0  0  0  0  0  0
    2.6529   -0.6846    0.3879 C   0  0  0  0  0  0  0  0  0  0  0  0
    3.2845    0.1537    1.3892 N   0  0  0  0  0  0  0  0  0  0  0  0
    4.6651    0.1688    1.4946 C   0  0  0  0  0  0  0  0  0  0  0  0
    5.3776   -0.5547    0.8129 O   0  0  0  0  0  0  0  0  0  0  0  0
    5.0696    1.0703    2.4449 N   0  0  0  0  0  0  0  0  0  0  0  0
    6.3613    1.3955    2.7744 C   0  0  0  0  0  0  0  0  0  0  0  0
    6.6445    2.2324    3.7487 N   0  0  0  0  0  0  0  0  0  0  0  0
    8.0061    2.4377    3.8781 N   0  0  0  0  0  0  0  0  0  0  0  0
    8.6898    1.7540    2.9866 C   0  0  0  0  0  0  0  0  0  0  0  0
    7.7235    0.7979    1.9458 S   0  0  0  0  0  0  0  0  0  0  0  0
   10.4339    1.8340    2.9188 S   0  0  0  0  0  0  0  0  0  0  0  0
   10.6570    2.4133    1.2154 C   0  0  0  0  0  0  0  0  0  0  0  0
   12.0990    2.7341    0.9119 C   0  0  0  0  0  0  0  0  0  0  0  0
   12.5792    4.0501    1.0431 C   0  0  0  0  0  0  0  0  0  0  0  0
   13.9081    4.3551    0.7407 C   0  0  0  0  0  0  0  0  0  0  0  0
   14.7646    3.3352    0.3205 C   0  0  0  0  0  0  0  0  0  0  0  0
   14.3064    2.0232    0.2035 C   0  0  0  0  0  0  0  0  0  0  0  0
   12.9781    1.7230    0.4980 C   0  0  0  0  0  0  0  0  0  0  0  0
   14.4871    5.5925    0.8101 O   0  0  0  0  0  0  0  0  0  0  0  0
   13.6578    6.6713    1.2218 C   0  0  0  0  0  0  0  0  0  0  0  0
    0.6958   -1.4219   -0.1420 H   0  0  0  0  0  0  0  0  0  0  0  0
    0.6818    0.1862    0.6088 H   0  0  0  0  0  0  0  0  0  0  0  0
    0.9566   -1.2487    1.6053 H   0  0  0  0  0  0  0  0  0  0  0  0
    2.8510   -0.2398   -0.5935 H   0  0  0  0  0  0  0  0  0  0  0  0
    3.1157   -1.6774    0.4072 H   0  0  0  0  0  0  0  0  0  0  0  0
    2.8285    1.0335    1.5829 H   0  0  0  0  0  0  0  0  0  0  0  0
    4.3759    1.4750    3.0534 H   0  0  0  0  0  0  0  0  0  0  0  0
   10.0395    3.3037    1.0500 H   0  0  0  0  0  0  0  0  0  0  0  0
   10.3061    1.6523    0.5092 H   0  0  0  0  0  0  0  0  0  0  0  0
   11.8927    4.8204    1.3802 H   0  0  0  0  0  0  0  0  0  0  0  0
   15.8002    3.5664    0.0835 H   0  0  0  0  0  0  0  0  0  0  0  0
   14.9855    1.2378   -0.1181 H   0  0  0  0  0  0  0  0  0  0  0  0
   12.6319    0.6958    0.4032 H   0  0  0  0  0  0  0  0  0  0  0  0
   14.2639    7.5822    1.2075 H   0  0  0  0  0  0  0  0  0  0  0  0
   13.2995    6.5249    2.2460 H   0  0  0  0  0  0  0  0  0  0  0  0
   12.8241    6.8172    0.5270 H   0  0  0  0  0  0  0  0  0  0  0  0
  1  2  1  0  0  0  0
  1 22  1  0  0  0  0
  1 23  1  0  0  0  0
  1 24  1  0  0  0  0
  2  3  1  0  0  0  0
  2 25  1  0  0  0  0
  2 26  1  0  0  0  0
  3  4  1  0  0  0  0
  3 27  1  0  0  0  0
  4  5  2  0  0  0  0
  4  6  1  0  0  0  0
  6  7  1  0  0  0  0
  6 28  1  0  0  0  0
  7  8  2  0  0  0  0
  7 11  1  0  0  0  0
  8  9  1  0  0  0  0
  9 10  2  0  0  0  0
 10 11  1  0  0  0  0
 10 12  1  0  0  0  0
 12 13  1  0  0  0  0
 13 14  1  0  0  0  0
 13 29  1  0  0  0  0
 13 30  1  0  0  0  0
 14 15  2  0  0  0  0
 14 19  1  0  0  0  0
 15 16  1  0  0  0  0
 15 31  1  0  0  0  0
 16 17  2  0  0  0  0
 16 20  1  0  0  0  0
 17 18  1  0  0  0  0
 17 32  1  0  0  0  0
 18 19  2  0  0  0  0
 18 33  1  0  0  0  0
 19 34  1  0  0  0  0
 20 21  1  0  0  0  0
 21 35  1  0  0  0  0
 21 36  1  0  0  0  0
 21 37  1  0  0  0  0
M  END
