
 OpenBabel10072616403D

 69 73  0  0  1  0  0  0  0  0999 V2000
   -5.4357   -8.0091   -5.0488 C   0  0  0  0  0  0  0  0  0  0  0  0
   -5.0170   -9.1981   -5.6523 C   0  0  0  0  0  0  0  0  0  0  0  0
   -5.3285  -10.4155   -5.0562 C   0  0  0  0  0  0  0  0  0  0  0  0
   -6.0673  -10.4632   -3.8818 C   0  0  0  0  0  0  0  0  0  0  0  0
   -6.4771   -9.2783   -3.2754 C   0  0  0  0  0  0  0  0  0  0  0  0
   -6.1388   -8.0422   -3.8361 C   0  0  0  0  0  0  0  0  0  0  0  0
   -6.5574   -6.8347   -3.1211 C   0  0  0  0  0  0  0  0  0  0  0  0
   -5.8322   -5.7091   -3.1032 C   0  0  0  0  0  0  0  0  0  0  0  0
   -6.2118   -4.5077   -2.3376 C   0  0  0  0  0  0  0  0  0  0  0  0
   -5.6747   -3.4313   -2.5150 O   0  0  0  0  0  0  0  0  0  0  0  0
   -7.1660   -4.7912   -1.4157 O   0  0  0  0  0  0  0  0  0  0  0  0
   -7.5286   -3.7109   -0.5432 C   0  0  0  0  0  0  0  0  0  0  0  0
   -7.1659   -4.0765    0.8989 C   0  0  2  0  0  0  0  0  0  0  0  0
   -8.0173   -5.2262    1.4513 C   0  0  2  0  0  0  0  0  0  0  0  0
   -7.5729   -5.4862    2.8973 C   0  0  1  0  0  0  0  0  0  0  0  0
   -7.5501   -4.2082    3.7688 C   0  0  2  0  0  0  0  0  0  0  0  0
   -6.8492   -3.0390    3.0329 C   0  0  1  0  0  0  0  0  0  0  0  0
   -7.3837   -2.9262    1.7009 O   0  0  0  0  0  0  0  0  0  0  0  0
   -6.9849   -1.7879    3.7797 O   0  0  0  0  0  0  0  0  0  0  0  0
   -7.1435   -0.7350    2.8814 C   0  0  0  0  0  0  0  0  0  0  0  0
   -6.1233   -0.1628    2.2255 C   0  0  0  0  0  0  0  0  0  0  0  0
   -6.2654    0.5117    1.0197 O   0  0  0  0  0  0  0  0  0  0  0  0
   -7.5059    0.4553    0.4184 C   0  0  0  0  0  0  0  0  0  0  0  0
   -7.5612    0.6093   -0.9721 C   0  0  0  0  0  0  0  0  0  0  0  0
   -8.8049    0.6905   -1.5828 C   0  0  0  0  0  0  0  0  0  0  0  0
   -9.9673    0.7578   -0.8182 C   0  0  0  0  0  0  0  0  0  0  0  0
   -9.9025    0.5512    0.5624 C   0  0  0  0  0  0  0  0  0  0  0  0
   -8.6751    0.2906    1.1730 C   0  0  0  0  0  0  0  0  0  0  0  0
   -8.5241   -0.2633    2.5449 C   0  0  0  0  0  0  0  0  0  0  0  0
   -9.4381   -0.3611    3.3560 O   0  0  0  0  0  0  0  0  0  0  0  0
  -11.0618    0.6107    1.2782 O   0  0  0  0  0  0  0  0  0  0  0  0
   -8.9258    0.7284   -2.9405 O   0  0  0  0  0  0  0  0  0  0  0  0
   -4.7799   -0.0788    2.8361 C   0  0  0  0  0  0  0  0  0  0  0  0
   -3.6223   -0.5675    2.2299 C   0  0  0  0  0  0  0  0  0  0  0  0
   -2.3650   -0.3075    2.8058 C   0  0  0  0  0  0  0  0  0  0  0  0
   -2.2570    0.4730    3.9560 C   0  0  0  0  0  0  0  0  0  0  0  0
   -3.3955    0.9282    4.5957 C   0  0  0  0  0  0  0  0  0  0  0  0
   -4.6489    0.6334    4.0493 C   0  0  0  0  0  0  0  0  0  0  0  0
   -1.0468    0.8213    4.4811 O   0  0  0  0  0  0  0  0  0  0  0  0
   -6.8791   -4.5280    4.9997 O   0  0  0  0  0  0  0  0  0  0  0  0
   -8.4288   -6.4686    3.5071 O   0  0  0  0  0  0  0  0  0  0  0  0
   -7.8598   -6.4318    0.6940 O   0  0  0  0  0  0  0  0  0  0  0  0
   -4.9162  -11.6000   -5.5888 O   0  0  0  0  0  0  0  0  0  0  0  0
   -5.2055   -7.0640   -5.5366 H   0  0  0  0  0  0  0  0  0  0  0  0
   -4.4464   -9.1525   -6.5739 H   0  0  0  0  0  0  0  0  0  0  0  0
   -6.3111  -11.4170   -3.4254 H   0  0  0  0  0  0  0  0  0  0  0  0
   -7.0462   -9.3295   -2.3499 H   0  0  0  0  0  0  0  0  0  0  0  0
   -7.4757   -6.9213   -2.5462 H   0  0  0  0  0  0  0  0  0  0  0  0
   -4.8988   -5.6151   -3.6468 H   0  0  0  0  0  0  0  0  0  0  0  0
   -8.6080   -3.5595   -0.6407 H   0  0  0  0  0  0  0  0  0  0  0  0
   -7.0568   -2.7599   -0.8217 H   0  0  0  0  0  0  0  0  0  0  0  0
   -6.1038   -4.3598    0.9142 H   0  0  0  0  0  0  0  0  0  0  0  0
   -9.0850   -4.9746    1.4404 H   0  0  0  0  0  0  0  0  0  0  0  0
   -6.5729   -5.9392    2.8927 H   0  0  0  0  0  0  0  0  0  0  0  0
   -8.5670   -3.9119    4.0474 H   0  0  0  0  0  0  0  0  0  0  0  0
   -5.7722   -3.2417    2.9602 H   0  0  0  0  0  0  0  0  0  0  0  0
   -6.6536    0.6524   -1.5678 H   0  0  0  0  0  0  0  0  0  0  0  0
  -10.9200    0.9353   -1.3081 H   0  0  0  0  0  0  0  0  0  0  0  0
  -11.5364    1.4187    1.0147 H   0  0  0  0  0  0  0  0  0  0  0  0
   -8.0853    0.4540   -3.3492 H   0  0  0  0  0  0  0  0  0  0  0  0
   -3.6752   -1.1346    1.3034 H   0  0  0  0  0  0  0  0  0  0  0  0
   -1.4736   -0.7022    2.3329 H   0  0  0  0  0  0  0  0  0  0  0  0
   -3.3175    1.5238    5.5022 H   0  0  0  0  0  0  0  0  0  0  0  0
   -5.5297    1.0070    4.5688 H   0  0  0  0  0  0  0  0  0  0  0  0
   -0.3412    0.3741    3.9874 H   0  0  0  0  0  0  0  0  0  0  0  0
   -7.4253   -5.2257    5.4118 H   0  0  0  0  0  0  0  0  0  0  0  0
   -8.3397   -7.2794    2.9680 H   0  0  0  0  0  0  0  0  0  0  0  0
   -7.9432   -6.1918   -0.2498 H   0  0  0  0  0  0  0  0  0  0  0  0
   -4.3931  -11.4225   -6.3870 H   0  0  0  0  0  0  0  0  0  0  0  0
  1  2  2  0  0  0  0
  1  6  1  0  0  0  0
  1 44  1  0  0  0  0
  2  3  1  0  0  0  0
  2 45  1  0  0  0  0
  3  4  2  0  0  0  0
  3 43  1  0  0  0  0
  4  5  1  0  0  0  0
  4 46  1  0  0  0  0
  5  6  2  0  0  0  0
  5 47  1  0  0  0  0
  6  7  1  0  0  0  0
  7  8  2  0  0  0  0
  7 48  1  0  0  0  0
  8  9  1  0  0  0  0
  8 49  1  0  0  0  0
  9 10  2  0  0  0  0
  9 11  1  0  0  0  0
 11 12  1  0  0  0  0
 12 50  1  0  0  0  0
 12 51  1  0  0  0  0
 13 14  1  0  0  0  0
 13 18  1  0  0  0  0
 13 12  1  0  0  0  0
 13 52  1  1  0  0  0
 14 15  1  0  0  0  0
 14 42  1  0  0  0  0
 14 53  1  6  0  0  0
 15 16  1  0  0  0  0
 15 41  1  0  0  0  0
 15 54  1  6  0  0  0
 16 17  1  0  0  0  0
 16 40  1  0  0  0  0
 16 55  1  1  0  0  0
 17 18  1  0  0  0  0
 17 19  1  0  0  0  0
 17 56  1  6  0  0  0
 19 20  1  0  0  0  0
 20 21  2  0  0  0  0
 20 29  1  0  0  0  0
 21 22  1  0  0  0  0
 21 33  1  0  0  0  0
 22 23  1  0  0  0  0
 23 24  2  0  0  0  0
 23 28  1  0  0  0  0
 24 25  1  0  0  0  0
 24 57  1  0  0  0  0
 25 26  2  0  0  0  0
 25 32  1  0  0  0  0
 26 27  1  0  0  0  0
 26 58  1  0  0  0  0
 27 28  2  0  0  0  0
 27 31  1  0  0  0  0
 28 29  1  0  0  0  0
 29 30  2  0  0  0  0
 31 59  1  0  0  0  0
 32 60  1  0  0  0  0
 33 34  2  0  0  0  0
 33 38  1  0  0  0  0
 34 35  1  0  0  0  0
 34 61  1  0  0  0  0
 35 36  2  0  0  0  0
 35 62  1  0  0  0  0
 36 37  1  0  0  0  0
 36 39  1  0  0  0  0
 37 38  2  0  0  0  0
 37 63  1  0  0  0  0
 38 64  1  0  0  0  0
 39 65  1  0  0  0  0
 40 66  1  0  0  0  0
 41 67  1  0  0  0  0
 42 68  1  0  0  0  0
 43 69  1  0  0  0  0
M  END
