
 OpenBabel10072620113D

 19 19  0  0  0  0  0  0  0  0999 V2000
    2.0879    0.1264   -0.4513 C   0  0  0  0  0  0  0  0  0  0  0  0
    1.6186   -1.1484   -0.1559 C   0  0  0  0  0  0  0  0  0  0  0  0
    0.2975   -1.3182    0.2565 C   0  0  0  0  0  0  0  0  0  0  0  0
   -0.5667   -0.2141    0.3748 C   0  0  0  0  0  0  0  0  0  0  0  0
   -0.1033    1.0752    0.0634 C   0  0  0  0  0  0  0  0  0  0  0  0
    1.2361    1.2274   -0.3381 C   0  0  0  0  0  0  0  0  0  0  0  0
   -0.9553    2.2670    0.1936 C   0  0  0  0  0  0  0  0  0  0  0  0
   -0.9937    3.2506   -0.7189 C   0  0  0  0  0  0  0  0  0  0  0  0
   -1.8632    4.4961   -0.5430 C   0  0  0  0  0  0  0  0  0  0  0  0
   -2.4481    4.6205    0.5674 O   0  0  0  0  0  0  0  0  0  0  0  0
   -1.8634    5.2601   -1.5503 O   0  5  0  0  0  0  0  0  0  0  0  0
   -1.9132   -0.4659    0.8090 C   0  0  0  0  0  0  0  0  0  0  0  0
   -2.9746   -0.7631    1.1770 N   0  0  0  0  0  0  0  0  0  0  0  0
    3.1165    0.2727   -0.7684 H   0  0  0  0  0  0  0  0  0  0  0  0
    2.2778   -2.0076   -0.2434 H   0  0  0  0  0  0  0  0  0  0  0  0
   -0.0638   -2.3193    0.4845 H   0  0  0  0  0  0  0  0  0  0  0  0
    1.6248    2.2204   -0.5591 H   0  0  0  0  0  0  0  0  0  0  0  0
   -1.5841    2.3416    1.0804 H   0  0  0  0  0  0  0  0  0  0  0  0
   -0.4101    3.2146   -1.6337 H   0  0  0  0  0  0  0  0  0  0  0  0
  1  2  2  0  0  0  0
  1  6  1  0  0  0  0
  1 14  1  0  0  0  0
  2  3  1  0  0  0  0
  2 15  1  0  0  0  0
  3  4  2  0  0  0  0
  3 16  1  0  0  0  0
  4  5  1  0  0  0  0
  4 12  1  0  0  0  0
  5  6  2  0  0  0  0
  5  7  1  0  0  0  0
  6 17  1  0  0  0  0
  7  8  2  0  0  0  0
  7 18  1  0  0  0  0
  8  9  1  0  0  0  0
  8 19  1  0  0  0  0
  9 10  2  0  0  0  0
  9 11  1  0  0  0  0
 12 13  3  0  0  0  0
M  CHG  1  11  -1
M  END
