
 OpenBabel10072616273D

 20 20  0  0  0  0  0  0  0  0999 V2000
    0.9812    0.0599    0.2893 C   0  0  0  0  0  0  0  0  0  0  0  0
    2.2451   -0.0109   -0.1476 C   0  0  0  0  0  0  0  0  0  0  0  0
    2.9117    1.0485   -0.9149 C   0  0  0  0  0  0  0  0  0  0  0  0
    2.7176    2.4070   -0.6374 C   0  0  0  0  0  0  0  0  0  0  0  0
    3.3887    3.3880   -1.3739 C   0  0  0  0  0  0  0  0  0  0  0  0
    4.2658    3.0278   -2.4035 C   0  0  0  0  0  0  0  0  0  0  0  0
    4.4825    1.6694   -2.6639 C   0  0  0  0  0  0  0  0  0  0  0  0
    3.8135    0.6901   -1.9235 C   0  0  0  0  0  0  0  0  0  0  0  0
    5.0130    4.0815   -3.1749 C   0  0  0  0  0  0  0  0  0  0  0  0
    6.2583    4.3688   -2.5533 O   0  0  0  0  0  0  0  0  0  0  0  0
    0.5417   -0.7674    0.8378 H   0  0  0  0  0  0  0  0  0  0  0  0
    0.3482    0.9206    0.0994 H   0  0  0  0  0  0  0  0  0  0  0  0
    2.8275   -0.9097    0.0414 H   0  0  0  0  0  0  0  0  0  0  0  0
    2.0512    2.7176    0.1637 H   0  0  0  0  0  0  0  0  0  0  0  0
    3.2233    4.4366   -1.1344 H   0  0  0  0  0  0  0  0  0  0  0  0
    5.1758    1.3639   -3.4452 H   0  0  0  0  0  0  0  0  0  0  0  0
    3.9966   -0.3582   -2.1501 H   0  0  0  0  0  0  0  0  0  0  0  0
    4.4311    5.0075   -3.2339 H   0  0  0  0  0  0  0  0  0  0  0  0
    5.2028    3.7505   -4.2014 H   0  0  0  0  0  0  0  0  0  0  0  0
    6.3178    3.8324   -1.7440 H   0  0  0  0  0  0  0  0  0  0  0  0
  1  2  2  0  0  0  0
  1 11  1  0  0  0  0
  1 12  1  0  0  0  0
  2  3  1  0  0  0  0
  2 13  1  0  0  0  0
  3  4  2  0  0  0  0
  3  8  1  0  0  0  0
  4  5  1  0  0  0  0
  4 14  1  0  0  0  0
  5  6  2  0  0  0  0
  5 15  1  0  0  0  0
  6  7  1  0  0  0  0
  6  9  1  0  0  0  0
  7  8  2  0  0  0  0
  7 16  1  0  0  0  0
  8 17  1  0  0  0  0
  9 10  1  0  0  0  0
  9 18  1  0  0  0  0
  9 19  1  0  0  0  0
 10 20  1  0  0  0  0
M  END
