
 OpenBabel10072619573D

 44 47  0  0  0  0  0  0  0  0999 V2000
   -0.2222    0.4796   -2.2146 C   0  0  0  0  0  0  0  0  0  0  0  0
    1.0893    0.7358   -1.7125 O   0  0  0  0  0  0  0  0  0  0  0  0
    1.8517   -0.3993   -1.6560 C   0  0  0  0  0  0  0  0  0  0  0  0
    1.4637   -1.5294   -0.9383 C   0  0  0  0  0  0  0  0  0  0  0  0
    2.2935   -2.6497   -0.9133 C   0  0  0  0  0  0  0  0  0  0  0  0
    3.5152   -2.6340   -1.5937 C   0  0  0  0  0  0  0  0  0  0  0  0
    3.9349   -1.4824   -2.2770 C   0  0  0  0  0  0  0  0  0  0  0  0
    3.0895   -0.3617   -2.2967 C   0  0  0  0  0  0  0  0  0  0  0  0
    5.1852   -1.4566   -2.9798 N   0  0  0  0  0  0  0  0  0  0  0  0
    6.0928   -0.4090   -2.8334 C   0  0  0  0  0  0  0  0  0  0  0  0
    7.1461   -0.2607   -3.5776 N   0  0  0  0  0  0  0  0  0  0  0  0
    7.4059   -1.1966   -4.5781 C   0  0  0  0  0  0  0  0  0  0  0  0
    6.6214   -2.3290   -4.7608 C   0  0  0  0  0  0  0  0  0  0  0  0
    5.4303   -2.4834   -3.9044 C   0  0  0  0  0  0  0  0  0  0  0  0
    4.7186   -3.4703   -4.0854 O   0  0  0  0  0  0  0  0  0  0  0  0
    6.9321   -3.2732   -5.7489 C   0  0  0  0  0  0  0  0  0  0  0  0
    8.0527   -3.0751   -6.5534 C   0  0  0  0  0  0  0  0  0  0  0  0
    8.8473   -1.9396   -6.3855 C   0  0  0  0  0  0  0  0  0  0  0  0
    8.5175   -1.0047   -5.4002 C   0  0  0  0  0  0  0  0  0  0  0  0
    8.5359   -4.4735   -8.0164 I   0  0  0  0  0  0  0  0  0  0  0  0
    5.9110    0.5147   -1.6706 C   0  0  0  0  0  0  0  0  0  0  0  0
    6.2940    1.7989   -1.7589 C   0  0  0  0  0  0  0  0  0  0  0  0
    6.2734    2.7535   -0.6424 C   0  0  0  0  0  0  0  0  0  0  0  0
    7.1045    3.8728   -0.6812 C   0  0  0  0  0  0  0  0  0  0  0  0
    7.1895    4.8064    0.2968 N   0  0  0  0  0  0  0  0  0  0  0  0
    6.3861    4.6327    1.3653 C   0  0  0  0  0  0  0  0  0  0  0  0
    5.5027    3.5755    1.4975 C   0  0  0  0  0  0  0  0  0  0  0  0
    5.4515    2.6246    0.4799 C   0  0  0  0  0  0  0  0  0  0  0  0
   -0.6688    1.4416   -2.4813 H   0  0  0  0  0  0  0  0  0  0  0  0
   -0.8551    0.0189   -1.4500 H   0  0  0  0  0  0  0  0  0  0  0  0
   -0.1959   -0.1379   -3.1202 H   0  0  0  0  0  0  0  0  0  0  0  0
    0.5290   -1.5483   -0.3857 H   0  0  0  0  0  0  0  0  0  0  0  0
    1.9885   -3.5390   -0.3654 H   0  0  0  0  0  0  0  0  0  0  0  0
    4.1480   -3.5191   -1.5675 H   0  0  0  0  0  0  0  0  0  0  0  0
    3.3574    0.5333   -2.8541 H   0  0  0  0  0  0  0  0  0  0  0  0
    6.2872   -4.1381   -5.8888 H   0  0  0  0  0  0  0  0  0  0  0  0
    9.7171   -1.7686   -7.0145 H   0  0  0  0  0  0  0  0  0  0  0  0
    9.1225   -0.1104   -5.2682 H   0  0  0  0  0  0  0  0  0  0  0  0
    5.5497    0.0769   -0.7479 H   0  0  0  0  0  0  0  0  0  0  0  0
    6.6924    2.1765   -2.6995 H   0  0  0  0  0  0  0  0  0  0  0  0
    7.7591    4.0633   -1.5271 H   0  0  0  0  0  0  0  0  0  0  0  0
    6.4714    5.3871    2.1412 H   0  0  0  0  0  0  0  0  0  0  0  0
    4.8585    3.4896    2.3651 H   0  0  0  0  0  0  0  0  0  0  0  0
    4.7616    1.7927    0.5779 H   0  0  0  0  0  0  0  0  0  0  0  0
  1  2  1  0  0  0  0
  1 29  1  0  0  0  0
  1 30  1  0  0  0  0
  1 31  1  0  0  0  0
  2  3  1  0  0  0  0
  3  4  2  0  0  0  0
  3  8  1  0  0  0  0
  4  5  1  0  0  0  0
  4 32  1  0  0  0  0
  5  6  2  0  0  0  0
  5 33  1  0  0  0  0
  6  7  1  0  0  0  0
  6 34  1  0  0  0  0
  7  8  2  0  0  0  0
  7  9  1  0  0  0  0
  8 35  1  0  0  0  0
  9 10  1  0  0  0  0
  9 14  1  0  0  0  0
 10 11  2  0  0  0  0
 10 21  1  0  0  0  0
 11 12  1  0  0  0  0
 12 13  2  0  0  0  0
 12 19  1  0  0  0  0
 13 14  1  0  0  0  0
 13 16  1  0  0  0  0
 14 15  2  0  0  0  0
 16 17  2  0  0  0  0
 16 36  1  0  0  0  0
 17 18  1  0  0  0  0
 17 20  1  0  0  0  0
 18 19  2  0  0  0  0
 18 37  1  0  0  0  0
 19 38  1  0  0  0  0
 21 22  2  0  0  0  0
 21 39  1  0  0  0  0
 22 23  1  0  0  0  0
 22 40  1  0  0  0  0
 23 24  2  0  0  0  0
 23 28  1  0  0  0  0
 24 25  1  0  0  0  0
 24 41  1  0  0  0  0
 25 26  2  0  0  0  0
 26 27  1  0  0  0  0
 26 42  1  0  0  0  0
 27 28  2  0  0  0  0
 27 43  1  0  0  0  0
 28 44  1  0  0  0  0
M  END
