
 OpenBabel10072619593D

 44 47  0  0  0  0  0  0  0  0999 V2000
   -1.2010   -3.3367    1.2959 C   0  0  0  0  0  0  0  0  0  0  0  0
   -0.3390   -4.3264    0.5595 C   0  0  0  0  0  0  0  0  0  0  0  0
   -0.6858   -5.6862    0.5581 C   0  0  0  0  0  0  0  0  0  0  0  0
    0.0974   -6.6170   -0.1233 C   0  0  0  0  0  0  0  0  0  0  0  0
    1.2358   -6.1992   -0.8056 C   0  0  0  0  0  0  0  0  0  0  0  0
    1.5937   -4.8499   -0.8047 C   0  0  0  0  0  0  0  0  0  0  0  0
    0.8059   -3.8981   -0.1417 C   0  0  0  0  0  0  0  0  0  0  0  0
    1.2215   -2.5542   -0.0193 N   0  0  0  0  0  0  0  0  0  0  0  0
    1.7607   -1.7662   -1.0247 C   0  0  0  0  0  0  0  0  0  0  0  0
    1.4965   -1.8328   -2.3357 C   0  0  0  0  0  0  0  0  0  0  0  0
    2.1543   -0.9389   -3.3251 C   0  0  0  0  0  0  0  0  0  0  0  0
    2.2950   -1.4435   -4.5147 N   0  0  0  0  0  0  0  0  0  0  0  0
    3.1432   -0.7749   -5.7056 S   0  0  0  0  0  0  0  0  0  0  0  0
    2.2888    0.0721   -6.5144 O   0  0  0  0  0  0  0  0  0  0  0  0
    4.4474   -0.3432   -5.2553 O   0  0  0  0  0  0  0  0  0  0  0  0
    3.4216   -2.2256   -6.7073 C   0  0  0  0  0  0  0  0  0  0  0  0
    2.9859   -2.5733   -7.9734 C   0  0  0  0  0  0  0  0  0  0  0  0
    3.4687   -3.8488   -8.3850 C   0  0  0  0  0  0  0  0  0  0  0  0
    4.2505   -4.4389   -7.4174 C   0  0  0  0  0  0  0  0  0  0  0  0
    4.3999   -3.4572   -6.0242 S   0  0  0  0  0  0  0  0  0  0  0  0
    2.5765    0.3797   -2.7806 C   0  0  0  0  0  0  0  0  0  0  0  0
    2.5735    1.5584   -3.5332 C   0  0  0  0  0  0  0  0  0  0  0  0
    2.9629    2.7728   -2.9547 C   0  0  0  0  0  0  0  0  0  0  0  0
    3.3442    2.8285   -1.6162 C   0  0  0  0  0  0  0  0  0  0  0  0
    3.3045    1.6731   -0.8428 C   0  0  0  0  0  0  0  0  0  0  0  0
    2.8955    0.4633   -1.4213 C   0  0  0  0  0  0  0  0  0  0  0  0
    2.6930   -0.6985   -0.5421 C   0  0  0  0  0  0  0  0  0  0  0  0
    3.1784   -0.7523    0.5844 O   0  0  0  0  0  0  0  0  0  0  0  0
   -2.1110   -3.8052    1.6838 H   0  0  0  0  0  0  0  0  0  0  0  0
   -1.5136   -2.5288    0.6247 H   0  0  0  0  0  0  0  0  0  0  0  0
   -0.6526   -2.9138    2.1430 H   0  0  0  0  0  0  0  0  0  0  0  0
   -1.5676   -6.0280    1.0954 H   0  0  0  0  0  0  0  0  0  0  0  0
   -0.1772   -7.6687   -0.1135 H   0  0  0  0  0  0  0  0  0  0  0  0
    1.8548   -6.9246   -1.3270 H   0  0  0  0  0  0  0  0  0  0  0  0
    2.5097   -4.5541   -1.3090 H   0  0  0  0  0  0  0  0  0  0  0  0
    1.7341   -2.4141    0.8584 H   0  0  0  0  0  0  0  0  0  0  0  0
    0.8499   -2.6060   -2.7377 H   0  0  0  0  0  0  0  0  0  0  0  0
    2.3462   -1.9343   -8.5713 H   0  0  0  0  0  0  0  0  0  0  0  0
    3.2543   -4.3124   -9.3401 H   0  0  0  0  0  0  0  0  0  0  0  0
    4.7440   -5.4002   -7.4598 H   0  0  0  0  0  0  0  0  0  0  0  0
    2.2352    1.5806   -4.5635 H   0  0  0  0  0  0  0  0  0  0  0  0
    2.9576    3.6811   -3.5544 H   0  0  0  0  0  0  0  0  0  0  0  0
    3.6325    3.7769   -1.1686 H   0  0  0  0  0  0  0  0  0  0  0  0
    3.5477    1.7243    0.2175 H   0  0  0  0  0  0  0  0  0  0  0  0
  1  2  1  0  0  0  0
  1 29  1  0  0  0  0
  1 30  1  0  0  0  0
  1 31  1  0  0  0  0
  2  3  2  0  0  0  0
  2  7  1  0  0  0  0
  3  4  1  0  0  0  0
  3 32  1  0  0  0  0
  4  5  2  0  0  0  0
  4 33  1  0  0  0  0
  5  6  1  0  0  0  0
  5 34  1  0  0  0  0
  6  7  2  0  0  0  0
  6 35  1  0  0  0  0
  7  8  1  0  0  0  0
  8  9  1  0  0  0  0
  8 36  1  0  0  0  0
  9 10  2  0  0  0  0
  9 27  1  0  0  0  0
 10 11  1  0  0  0  0
 10 37  1  0  0  0  0
 11 12  2  0  0  0  0
 11 21  1  0  0  0  0
 12 13  1  0  0  0  0
 13 14  2  0  0  0  0
 13 15  2  0  0  0  0
 13 16  1  0  0  0  0
 16 17  2  0  0  0  0
 16 20  1  0  0  0  0
 17 18  1  0  0  0  0
 17 38  1  0  0  0  0
 18 19  2  0  0  0  0
 18 39  1  0  0  0  0
 19 20  1  0  0  0  0
 19 40  1  0  0  0  0
 21 22  2  0  0  0  0
 21 26  1  0  0  0  0
 22 23  1  0  0  0  0
 22 41  1  0  0  0  0
 23 24  2  0  0  0  0
 23 42  1  0  0  0  0
 24 25  1  0  0  0  0
 24 43  1  0  0  0  0
 25 26  2  0  0  0  0
 25 44  1  0  0  0  0
 26 27  1  0  0  0  0
 27 28  2  0  0  0  0
M  END
