
 OpenBabel10072619513D

 20 20  0  0  0  0  0  0  0  0999 V2000
    1.3971   -0.1246    0.0403 C   0  0  0  0  0  0  0  0  0  0  0  0
    0.6158   -1.2780    0.0518 C   0  0  0  0  0  0  0  0  0  0  0  0
   -0.7780   -1.1814    0.0241 C   0  0  0  0  0  0  0  0  0  0  0  0
   -1.4031    0.0721   -0.0053 C   0  0  0  0  0  0  0  0  0  0  0  0
   -0.6065    1.2240   -0.0362 C   0  0  0  0  0  0  0  0  0  0  0  0
    0.7868    1.1264   -0.0080 C   0  0  0  0  0  0  0  0  0  0  0  0
   -2.8624    0.2187   -0.0624 C   0  0  0  0  0  0  0  0  0  0  0  0
   -3.7132   -0.5598    0.6233 C   0  0  0  0  0  0  0  0  0  0  0  0
   -5.4053   -0.2659    0.4780 S   0  0  0  0  0  0  0  0  0  0  0  0
   -5.7381    1.0521    0.9718 O   0  0  0  0  0  0  0  0  0  0  0  0
   -5.8913   -0.7408   -0.7973 O   0  0  0  0  0  0  0  0  0  0  0  0
   -5.9497   -1.2851    1.6030 O   0  0  0  0  0  0  0  0  0  0  0  0
    2.4813   -0.2005    0.0621 H   0  0  0  0  0  0  0  0  0  0  0  0
    1.0911   -2.2552    0.0761 H   0  0  0  0  0  0  0  0  0  0  0  0
   -1.3635   -2.0975    0.0119 H   0  0  0  0  0  0  0  0  0  0  0  0
   -1.0630    2.2108   -0.0738 H   0  0  0  0  0  0  0  0  0  0  0  0
    1.3938    2.0278   -0.0266 H   0  0  0  0  0  0  0  0  0  0  0  0
   -3.2347    1.0289   -0.6880 H   0  0  0  0  0  0  0  0  0  0  0  0
   -3.4011   -1.3626    1.2740 H   0  0  0  0  0  0  0  0  0  0  0  0
   -6.6836   -0.8359    2.0729 H   0  0  0  0  0  0  0  0  0  0  0  0
  1  2  2  0  0  0  0
  1  6  1  0  0  0  0
  1 13  1  0  0  0  0
  2  3  1  0  0  0  0
  2 14  1  0  0  0  0
  3  4  2  0  0  0  0
  3 15  1  0  0  0  0
  4  5  1  0  0  0  0
  4  7  1  0  0  0  0
  5  6  2  0  0  0  0
  5 16  1  0  0  0  0
  6 17  1  0  0  0  0
  7  8  2  3  0  0  0
  7 18  1  0  0  0  0
  8  9  1  0  0  0  0
  8 19  1  0  0  0  0
  9 10  2  0  0  0  0
  9 11  2  0  0  0  0
  9 12  1  0  0  0  0
 12 20  1  0  0  0  0
M  END
