
 OpenBabel10072619443D

 37 38  0  0  0  0  0  0  0  0999 V2000
    0.9982   -0.2272    0.3145 C   0  0  0  0  0  0  0  0  0  0  0  0
    2.4457    0.1972    0.2840 C   0  0  0  0  0  0  0  0  0  0  0  0
    2.7604    1.3085   -0.1264 O   0  0  0  0  0  0  0  0  0  0  0  0
    3.2919   -0.7739    0.7879 N   0  0  0  0  0  0  0  0  0  0  0  0
    4.6952   -0.7105    0.9068 C   0  0  0  0  0  0  0  0  0  0  0  0
    5.4667    0.3777    0.4986 C   0  0  0  0  0  0  0  0  0  0  0  0
    6.8611    0.3663    0.6491 C   0  0  0  0  0  0  0  0  0  0  0  0
    7.4998   -0.7376    1.2097 C   0  0  0  0  0  0  0  0  0  0  0  0
    6.7320   -1.8286    1.6170 C   0  0  0  0  0  0  0  0  0  0  0  0
    5.3414   -1.8168    1.4680 C   0  0  0  0  0  0  0  0  0  0  0  0
    8.8447   -0.8757    1.4110 O   0  0  0  0  0  0  0  0  0  0  0  0
    9.6695    0.2220    1.0188 C   0  0  0  0  0  0  0  0  0  0  0  0
   11.1424   -0.0600    1.3125 C   0  0  0  0  0  0  0  0  0  0  0  0
   12.0185    0.7586    1.0398 O   0  0  0  0  0  0  0  0  0  0  0  0
   11.3516   -1.2978    1.9005 N   0  0  0  0  0  0  0  0  0  0  0  0
   12.6087   -1.7066    2.2338 N   0  0  0  0  0  0  0  0  0  0  0  0
   12.6901   -2.8791    2.7776 C   0  0  0  0  0  0  0  0  0  0  0  0
   13.9570   -3.4227    3.1717 C   0  0  0  0  0  0  0  0  0  0  0  0
   15.2440   -2.9269    3.0994 C   0  0  0  0  0  0  0  0  0  0  0  0
   16.0917   -3.9208    3.6437 C   0  0  0  0  0  0  0  0  0  0  0  0
   15.2722   -4.9604    4.0144 C   0  0  0  0  0  0  0  0  0  0  0  0
   13.9755   -4.6690    3.7336 O   0  0  0  0  0  0  0  0  0  0  0  0
    0.4696    0.2350   -0.5241 H   0  0  0  0  0  0  0  0  0  0  0  0
    0.5476    0.0984    1.2556 H   0  0  0  0  0  0  0  0  0  0  0  0
    0.8980   -1.3120    0.2182 H   0  0  0  0  0  0  0  0  0  0  0  0
    2.8593   -1.6264    1.1196 H   0  0  0  0  0  0  0  0  0  0  0  0
    5.0164    1.2606    0.0548 H   0  0  0  0  0  0  0  0  0  0  0  0
    7.4069    1.2424    0.3129 H   0  0  0  0  0  0  0  0  0  0  0  0
    7.2146   -2.6980    2.0560 H   0  0  0  0  0  0  0  0  0  0  0  0
    4.7780   -2.6854    1.7980 H   0  0  0  0  0  0  0  0  0  0  0  0
    9.3969    1.1203    1.5847 H   0  0  0  0  0  0  0  0  0  0  0  0
    9.5833    0.3913   -0.0608 H   0  0  0  0  0  0  0  0  0  0  0  0
   10.5439   -1.8914    2.0742 H   0  0  0  0  0  0  0  0  0  0  0  0
   11.7985   -3.5050    2.9589 H   0  0  0  0  0  0  0  0  0  0  0  0
   15.5232   -1.9611    2.6986 H   0  0  0  0  0  0  0  0  0  0  0  0
   17.1667   -3.8842    3.7513 H   0  0  0  0  0  0  0  0  0  0  0  0
   15.4469   -5.9265    4.4675 H   0  0  0  0  0  0  0  0  0  0  0  0
  1  2  1  0  0  0  0
  1 23  1  0  0  0  0
  1 24  1  0  0  0  0
  1 25  1  0  0  0  0
  2  3  2  0  0  0  0
  2  4  1  0  0  0  0
  4  5  1  0  0  0  0
  4 26  1  0  0  0  0
  5  6  2  0  0  0  0
  5 10  1  0  0  0  0
  6  7  1  0  0  0  0
  6 27  1  0  0  0  0
  7  8  2  0  0  0  0
  7 28  1  0  0  0  0
  8  9  1  0  0  0  0
  8 11  1  0  0  0  0
  9 10  2  0  0  0  0
  9 29  1  0  0  0  0
 10 30  1  0  0  0  0
 11 12  1  0  0  0  0
 12 13  1  0  0  0  0
 12 31  1  0  0  0  0
 12 32  1  0  0  0  0
 13 14  2  0  0  0  0
 13 15  1  0  0  0  0
 15 16  1  0  0  0  0
 15 33  1  0  0  0  0
 16 17  2  0  0  0  0
 17 18  1  0  0  0  0
 17 34  1  0  0  0  0
 18 19  2  0  0  0  0
 18 22  1  0  0  0  0
 19 20  1  0  0  0  0
 19 35  1  0  0  0  0
 20 21  2  0  0  0  0
 20 36  1  0  0  0  0
 21 22  1  0  0  0  0
 21 37  1  0  0  0  0
M  END
