
 OpenBabel10072616433D

231238  0  0  1  0  0  0  0  0999 V2000
    0.1282   -2.6787    3.5549 C   0  0  0  0  0  0  0  0  0  0  0  0
    1.5179   -3.1080    3.1466 C   0  0  0  0  0  0  0  0  0  0  0  0
    1.5404   -3.4254    1.7552 O   0  0  0  0  0  0  0  0  0  0  0  0
    1.3632   -4.8293    1.5387 C   0  0  0  0  0  0  0  0  0  0  0  0
    1.4396   -5.1739    0.0523 C   0  0  2  0  0  0  0  0  0  0  0  0
    2.7983   -4.8544   -0.6010 C   0  0  2  0  0  0  0  0  0  0  0  0
    2.7623   -5.4767   -2.0295 C   0  0  1  0  0  0  0  0  0  0  0  0
    1.3515   -5.4241   -2.6658 C   0  0  2  0  0  0  0  0  0  0  0  0
    0.5685   -4.2626   -2.0127 C   0  0  2  0  0  0  0  0  0  0  0  0
    0.3689   -4.4845   -0.6149 O   0  0  0  0  0  0  0  0  0  0  0  0
   -0.6989   -4.0477   -2.6639 O   0  0  0  0  0  0  0  0  0  0  0  0
   -1.4777   -3.0568   -1.9843 C   0  0  2  0  0  0  0  0  0  0  0  0
   -2.7678   -3.6610   -1.3890 C   0  0  2  0  0  0  0  0  0  0  0  0
   -3.5730   -2.6904   -0.7157 O   0  0  0  0  0  0  0  0  0  0  0  0
   -3.1151   -1.3433   -0.7919 C   0  0  1  0  0  0  0  0  0  0  0  0
   -2.8655   -0.9266   -2.2679 C   0  0  1  0  0  0  0  0  0  0  0  0
   -1.9128   -1.9358   -2.9554 C   0  0  1  0  0  0  0  0  0  0  0  0
   -0.7658   -1.2176   -3.4437 O   0  0  0  0  0  0  0  0  0  0  0  0
   -4.0061   -0.6597   -3.1122 O   0  0  0  0  0  0  0  0  0  0  0  0
   -5.1836   -1.4314   -2.9307 C   0  0  0  0  0  0  0  0  0  0  0  0
   -5.2893   -2.5269   -3.9733 C   0  0  0  0  0  0  0  0  0  0  0  0
   -4.0098   -0.4654   -0.1083 O   0  0  0  0  0  0  0  0  0  0  0  0
   -4.2722   -0.8763    1.2531 C   0  0  2  0  0  0  0  0  0  0  0  0
   -5.5106   -0.1044    1.7481 C   0  0  2  0  0  0  0  0  0  0  0  0
   -5.2724    1.2155    2.2651 O   0  0  0  0  0  0  0  0  0  0  0  0
   -3.9199    1.6147    2.4703 C   0  0  1  0  0  0  0  0  0  0  0  0
   -3.1559    0.4812    3.1647 C   0  0  1  0  0  0  0  0  0  0  0  0
   -3.0656   -0.7203    2.2075 C   0  0  1  0  0  0  0  0  0  0  0  0
   -2.9709   -1.9063    3.0282 O   0  0  0  0  0  0  0  0  0  0  0  0
   -1.8035    0.7564    3.5884 O   0  0  0  0  0  0  0  0  0  0  0  0
   -1.6396    1.8254    4.5148 C   0  0  0  0  0  0  0  0  0  0  0  0
   -2.1882    1.4796    5.8878 C   0  0  0  0  0  0  0  0  0  0  0  0
   -3.2541    2.0002    1.2670 O   0  0  0  0  0  0  0  0  0  0  0  0
   -3.9055    3.0932    0.5700 C   0  0  2  0  0  0  0  0  0  0  0  0
   -3.4033    3.0919   -0.9027 C   0  0  2  0  0  0  0  0  0  0  0  0
   -2.3669    4.0198   -1.2543 O   0  0  0  0  0  0  0  0  0  0  0  0
   -2.2422    5.2286   -0.5268 C   0  0  1  0  0  0  0  0  0  0  0  0
   -3.4525    5.5723    0.3575 C   0  0  1  0  0  0  0  0  0  0  0  0
   -3.6404    4.4073    1.3190 C   0  0  1  0  0  0  0  0  0  0  0  0
   -4.7405    4.7171    2.1999 O   0  0  0  0  0  0  0  0  0  0  0  0
   -3.2807    6.7650    1.1570 O   0  0  0  0  0  0  0  0  0  0  0  0
   -3.4225    7.9735    0.4150 C   0  0  0  0  0  0  0  0  0  0  0  0
   -3.3681    9.1379    1.3864 C   0  0  0  0  0  0  0  0  0  0  0  0
   -1.0717    5.1341    0.2917 O   0  0  0  0  0  0  0  0  0  0  0  0
    0.0233    5.9646   -0.1331 C   0  0  2  0  0  0  0  0  0  0  0  0
    0.6949    5.4361   -1.4291 C   0  0  2  0  0  0  0  0  0  0  0  0
    1.6911    4.4108   -1.2794 O   0  0  0  0  0  0  0  0  0  0  0  0
    2.1196    4.0964    0.0371 C   0  0  1  0  0  0  0  0  0  0  0  0
    2.3465    5.3959    0.8250 C   0  0  1  0  0  0  0  0  0  0  0  0
    0.9924    6.0728    1.0595 C   0  0  1  0  0  0  0  0  0  0  0  0
    1.2379    7.4663    1.3490 O   0  0  0  0  0  0  0  0  0  0  0  0
    2.9809    5.2513    2.1121 O   0  0  0  0  0  0  0  0  0  0  0  0
    4.3611    4.8946    2.1008 C   0  0  0  0  0  0  0  0  0  0  0  0
    5.2605    5.9546    1.4887 C   0  0  0  0  0  0  0  0  0  0  0  0
    1.1938    3.2341    0.6967 O   0  0  0  0  0  0  0  0  0  0  0  0
    1.3321    1.8199    0.4307 C   0  0  2  0  0  0  0  0  0  0  0  0
    2.5599    1.2853    1.2050 C   0  0  2  0  0  0  0  0  0  0  0  0
    3.4280    0.4955    0.3803 O   0  0  0  0  0  0  0  0  0  0  0  0
    2.7699   -0.5899   -0.2600 C   0  0  1  0  0  0  0  0  0  0  0  0
    1.6946   -0.0768   -1.2536 C   0  0  1  0  0  0  0  0  0  0  0  0
    1.3621    1.4163   -1.0606 C   0  0  1  0  0  0  0  0  0  0  0  0
    0.0738    1.6603   -1.6468 O   0  0  0  0  0  0  0  0  0  0  0  0
    1.9159   -0.4185   -2.6398 O   0  0  0  0  0  0  0  0  0  0  0  0
    3.0201    0.1933   -3.3012 C   0  0  0  0  0  0  0  0  0  0  0  0
    3.2581   -0.5736   -4.5926 C   0  0  0  0  0  0  0  0  0  0  0  0
    3.6820   -1.4807   -0.9150 O   0  0  0  0  0  0  0  0  0  0  0  0
    4.9202   -1.7479   -0.2231 C   0  0  2  0  0  0  0  0  0  0  0  0
    5.7637   -2.6513   -1.1404 C   0  0  2  0  0  0  0  0  0  0  0  0
    5.3685   -4.0353   -1.1110 O   0  0  0  0  0  0  0  0  0  0  0  0
    5.1253   -4.6461    0.1493 C   0  0  2  0  0  0  0  0  0  0  0  0
    3.8941   -5.3990    0.1519 O   0  0  0  0  0  0  0  0  0  0  0  0
    5.2937   -3.7338    1.3870 C   0  0  1  0  0  0  0  0  0  0  0  0
    4.6703   -2.3672    1.1509 C   0  0  1  0  0  0  0  0  0  0  0  0
    5.2150   -1.4658    2.1337 O   0  0  0  0  0  0  0  0  0  0  0  0
    4.7289   -4.2532    2.6087 O   0  0  0  0  0  0  0  0  0  0  0  0
    5.3873   -5.4050    3.1188 C   0  0  0  0  0  0  0  0  0  0  0  0
    4.8376   -5.6802    4.5060 C   0  0  0  0  0  0  0  0  0  0  0  0
    7.2812   -2.4839   -0.9387 C   0  0  0  0  0  0  0  0  0  0  0  0
    7.9486   -3.2963   -1.9106 O   0  0  0  0  0  0  0  0  0  0  0  0
    9.3511   -3.0623   -1.9503 C   0  0  0  0  0  0  0  0  0  0  0  0
    9.9691   -4.0575   -2.9123 C   0  0  0  0  0  0  0  0  0  0  0  0
    2.1194    0.5869    2.5106 C   0  0  0  0  0  0  0  0  0  0  0  0
    3.2073    0.0969    3.3048 O   0  0  0  0  0  0  0  0  0  0  0  0
    4.0599    1.0879    3.8827 C   0  0  0  0  0  0  0  0  0  0  0  0
    3.3096    2.0617    4.7732 C   0  0  0  0  0  0  0  0  0  0  0  0
    1.3307    6.6228   -2.1880 C   0  0  0  0  0  0  0  0  0  0  0  0
    1.7935    6.2012   -3.4755 O   0  0  0  0  0  0  0  0  0  0  0  0
    2.3002    7.2953   -4.2348 C   0  0  0  0  0  0  0  0  0  0  0  0
    2.8664    6.7612   -5.5350 C   0  0  0  0  0  0  0  0  0  0  0  0
   -4.5378    3.2751   -1.9351 C   0  0  0  0  0  0  0  0  0  0  0  0
   -5.5845    2.3292   -1.7407 O   0  0  0  0  0  0  0  0  0  0  0  0
   -6.5004    2.2541   -2.8295 C   0  0  0  0  0  0  0  0  0  0  0  0
   -7.4304    3.4530   -2.8686 C   0  0  0  0  0  0  0  0  0  0  0  0
   -6.2333   -0.9567    2.8108 C   0  0  0  0  0  0  0  0  0  0  0  0
   -7.5217   -0.4150    3.1252 O   0  0  0  0  0  0  0  0  0  0  0  0
   -8.2410   -1.2973    3.9839 C   0  0  0  0  0  0  0  0  0  0  0  0
   -9.5453   -0.6455    4.3896 C   0  0  0  0  0  0  0  0  0  0  0  0
   -2.5326   -4.8266   -0.4144 C   0  0  0  0  0  0  0  0  0  0  0  0
   -3.6892   -5.3400    0.2650 O   0  0  0  0  0  0  0  0  0  0  0  0
   -4.8683   -5.5512   -0.4971 C   0  0  0  0  0  0  0  0  0  0  0  0
   -4.7120   -6.6157   -1.5647 C   0  0  0  0  0  0  0  0  0  0  0  0
    0.7167   -6.6997   -2.4118 O   0  0  0  0  0  0  0  0  0  0  0  0
   -0.3154   -7.0010   -3.3445 C   0  0  0  0  0  0  0  0  0  0  0  0
   -1.0388   -8.2500   -2.8835 C   0  0  0  0  0  0  0  0  0  0  0  0
    3.6617   -4.7954   -2.9102 O   0  0  0  0  0  0  0  0  0  0  0  0
   -0.2277   -1.8703    2.9075 H   0  0  0  0  0  0  0  0  0  0  0  0
   -0.5808   -3.5056    3.4465 H   0  0  0  0  0  0  0  0  0  0  0  0
    0.1187   -2.3319    4.5913 H   0  0  0  0  0  0  0  0  0  0  0  0
    2.2091   -2.2802    3.3150 H   0  0  0  0  0  0  0  0  0  0  0  0
    1.8723   -3.9476    3.7540 H   0  0  0  0  0  0  0  0  0  0  0  0
    0.3810   -5.1157    1.9293 H   0  0  0  0  0  0  0  0  0  0  0  0
    2.1348   -5.3844    2.0822 H   0  0  0  0  0  0  0  0  0  0  0  0
    1.2326   -6.2481   -0.0183 H   0  0  0  0  0  0  0  0  0  0  0  0
    2.9045   -3.7724   -0.6734 H   0  0  0  0  0  0  0  0  0  0  0  0
    3.1103   -6.5159   -1.9783 H   0  0  0  0  0  0  0  0  0  0  0  0
    1.4195   -5.2677   -3.7478 H   0  0  0  0  0  0  0  0  0  0  0  0
    1.1352   -3.3330   -2.1412 H   0  0  0  0  0  0  0  0  0  0  0  0
   -0.8738   -2.5928   -1.1947 H   0  0  0  0  0  0  0  0  0  0  0  0
   -3.3722   -4.0494   -2.2184 H   0  0  0  0  0  0  0  0  0  0  0  0
   -2.1579   -1.2680   -0.2712 H   0  0  0  0  0  0  0  0  0  0  0  0
   -2.3669    0.0506   -2.2227 H   0  0  0  0  0  0  0  0  0  0  0  0
   -2.3711   -2.3793   -3.8469 H   0  0  0  0  0  0  0  0  0  0  0  0
   -0.1586   -1.8580   -3.8454 H   0  0  0  0  0  0  0  0  0  0  0  0
   -5.2951   -1.8429   -1.9301 H   0  0  0  0  0  0  0  0  0  0  0  0
   -6.0273   -0.7488   -3.0604 H   0  0  0  0  0  0  0  0  0  0  0  0
   -5.4311   -2.0873   -4.9670 H   0  0  0  0  0  0  0  0  0  0  0  0
   -6.1401   -3.1821   -3.7551 H   0  0  0  0  0  0  0  0  0  0  0  0
   -4.3846   -3.1345   -4.0201 H   0  0  0  0  0  0  0  0  0  0  0  0
   -4.5520   -1.9356    1.2108 H   0  0  0  0  0  0  0  0  0  0  0  0
   -6.2032    0.0464    0.9114 H   0  0  0  0  0  0  0  0  0  0  0  0
   -3.9482    2.4743    3.1430 H   0  0  0  0  0  0  0  0  0  0  0  0
   -3.7159    0.1681    4.0533 H   0  0  0  0  0  0  0  0  0  0  0  0
   -2.1215   -0.6675    1.6584 H   0  0  0  0  0  0  0  0  0  0  0  0
   -2.3290   -1.7014    3.7278 H   0  0  0  0  0  0  0  0  0  0  0  0
   -2.0658    2.7546    4.1275 H   0  0  0  0  0  0  0  0  0  0  0  0
   -0.5602    1.9938    4.6030 H   0  0  0  0  0  0  0  0  0  0  0  0
   -3.2822    1.4833    5.8822 H   0  0  0  0  0  0  0  0  0  0  0  0
   -1.8540    2.2029    6.6377 H   0  0  0  0  0  0  0  0  0  0  0  0
   -1.8666    0.4788    6.1924 H   0  0  0  0  0  0  0  0  0  0  0  0
   -4.9796    2.8789    0.5690 H   0  0  0  0  0  0  0  0  0  0  0  0
   -2.9818    2.0999   -1.1012 H   0  0  0  0  0  0  0  0  0  0  0  0
   -2.1177    6.0263   -1.2673 H   0  0  0  0  0  0  0  0  0  0  0  0
   -4.3653    5.6945   -0.2366 H   0  0  0  0  0  0  0  0  0  0  0  0
   -2.7701    4.3110    1.9801 H   0  0  0  0  0  0  0  0  0  0  0  0
   -4.5643    5.6262    2.5067 H   0  0  0  0  0  0  0  0  0  0  0  0
   -4.3836    7.9794   -0.1096 H   0  0  0  0  0  0  0  0  0  0  0  0
   -2.6135    8.0638   -0.3149 H   0  0  0  0  0  0  0  0  0  0  0  0
   -2.4173    9.1449    1.9294 H   0  0  0  0  0  0  0  0  0  0  0  0
   -3.4819   10.0913    0.8624 H   0  0  0  0  0  0  0  0  0  0  0  0
   -4.1620    9.0529    2.1359 H   0  0  0  0  0  0  0  0  0  0  0  0
   -0.4021    6.9590   -0.3187 H   0  0  0  0  0  0  0  0  0  0  0  0
   -0.0552    4.9938   -2.0914 H   0  0  0  0  0  0  0  0  0  0  0  0
    3.0785    3.5843   -0.0669 H   0  0  0  0  0  0  0  0  0  0  0  0
    2.9634    6.0763    0.2293 H   0  0  0  0  0  0  0  0  0  0  0  0
    0.5205    5.6661    1.9637 H   0  0  0  0  0  0  0  0  0  0  0  0
    1.7699    7.4609    2.1711 H   0  0  0  0  0  0  0  0  0  0  0  0
    4.6503    4.7618    3.1493 H   0  0  0  0  0  0  0  0  0  0  0  0
    4.5100    3.9316    1.6080 H   0  0  0  0  0  0  0  0  0  0  0  0
    5.1281    6.0061    0.4039 H   0  0  0  0  0  0  0  0  0  0  0  0
    6.3118    5.7186    1.6810 H   0  0  0  0  0  0  0  0  0  0  0  0
    5.0372    6.9451    1.8958 H   0  0  0  0  0  0  0  0  0  0  0  0
    0.4193    1.3884    0.8619 H   0  0  0  0  0  0  0  0  0  0  0  0
    3.1841    2.1214    1.5177 H   0  0  0  0  0  0  0  0  0  0  0  0
    2.2463   -1.1757    0.4993 H   0  0  0  0  0  0  0  0  0  0  0  0
    0.7802   -0.6358   -1.0144 H   0  0  0  0  0  0  0  0  0  0  0  0
    2.0727    2.0320   -1.6099 H   0  0  0  0  0  0  0  0  0  0  0  0
    0.0900    1.2656   -2.5413 H   0  0  0  0  0  0  0  0  0  0  0  0
    3.9266    0.1723   -2.6925 H   0  0  0  0  0  0  0  0  0  0  0  0
    2.7838    1.2338   -3.5414 H   0  0  0  0  0  0  0  0  0  0  0  0
    3.4138   -1.6364   -4.3835 H   0  0  0  0  0  0  0  0  0  0  0  0
    4.1289   -0.1902   -5.1332 H   0  0  0  0  0  0  0  0  0  0  0  0
    2.3846   -0.5058   -5.2485 H   0  0  0  0  0  0  0  0  0  0  0  0
    5.4356   -0.7852   -0.1278 H   0  0  0  0  0  0  0  0  0  0  0  0
    5.5679   -2.3478   -2.1760 H   0  0  0  0  0  0  0  0  0  0  0  0
    5.8956   -5.4208    0.2458 H   0  0  0  0  0  0  0  0  0  0  0  0
    6.3607   -3.5685    1.5786 H   0  0  0  0  0  0  0  0  0  0  0  0
    3.6060   -2.4460    1.3536 H   0  0  0  0  0  0  0  0  0  0  0  0
    4.4519   -1.1907    2.6795 H   0  0  0  0  0  0  0  0  0  0  0  0
    5.1883   -6.2601    2.4672 H   0  0  0  0  0  0  0  0  0  0  0  0
    6.4673   -5.2338    3.1780 H   0  0  0  0  0  0  0  0  0  0  0  0
    5.2895   -6.5803    4.9318 H   0  0  0  0  0  0  0  0  0  0  0  0
    3.7504   -5.8095    4.4751 H   0  0  0  0  0  0  0  0  0  0  0  0
    5.0357   -4.8364    5.1768 H   0  0  0  0  0  0  0  0  0  0  0  0
    7.6088   -2.7989    0.0535 H   0  0  0  0  0  0  0  0  0  0  0  0
    7.5638   -1.4341   -1.0866 H   0  0  0  0  0  0  0  0  0  0  0  0
    9.7804   -3.1921   -0.9518 H   0  0  0  0  0  0  0  0  0  0  0  0
    9.5398   -2.0405   -2.2966 H   0  0  0  0  0  0  0  0  0  0  0  0
    9.5594   -3.9273   -3.9197 H   0  0  0  0  0  0  0  0  0  0  0  0
   11.0548   -3.9369   -2.9552 H   0  0  0  0  0  0  0  0  0  0  0  0
    9.7376   -5.0837   -2.6068 H   0  0  0  0  0  0  0  0  0  0  0  0
    1.5060   -0.2865    2.2839 H   0  0  0  0  0  0  0  0  0  0  0  0
    1.4813    1.2500    3.1053 H   0  0  0  0  0  0  0  0  0  0  0  0
    4.6227    1.6030    3.0980 H   0  0  0  0  0  0  0  0  0  0  0  0
    4.7946    0.5463    4.4890 H   0  0  0  0  0  0  0  0  0  0  0  0
    3.9988    2.6989    5.3366 H   0  0  0  0  0  0  0  0  0  0  0  0
    2.6678    1.5188    5.4731 H   0  0  0  0  0  0  0  0  0  0  0  0
    2.6666    2.7166    4.1794 H   0  0  0  0  0  0  0  0  0  0  0  0
    2.1838    7.0263   -1.6347 H   0  0  0  0  0  0  0  0  0  0  0  0
    0.5868    7.4164   -2.3263 H   0  0  0  0  0  0  0  0  0  0  0  0
    3.0872    7.8090   -3.6721 H   0  0  0  0  0  0  0  0  0  0  0  0
    1.4883    8.0010   -4.4411 H   0  0  0  0  0  0  0  0  0  0  0  0
    3.6959    6.0750   -5.3360 H   0  0  0  0  0  0  0  0  0  0  0  0
    2.1091    6.1949   -6.0867 H   0  0  0  0  0  0  0  0  0  0  0  0
    3.2302    7.5772   -6.1658 H   0  0  0  0  0  0  0  0  0  0  0  0
   -4.9481    4.2875   -1.8734 H   0  0  0  0  0  0  0  0  0  0  0  0
   -4.1143    3.1648   -2.9423 H   0  0  0  0  0  0  0  0  0  0  0  0
   -7.1017    1.3521   -2.6783 H   0  0  0  0  0  0  0  0  0  0  0  0
   -5.9638    2.1307   -3.7769 H   0  0  0  0  0  0  0  0  0  0  0  0
   -6.8869    4.3698   -3.1163 H   0  0  0  0  0  0  0  0  0  0  0  0
   -8.2135    3.3089   -3.6187 H   0  0  0  0  0  0  0  0  0  0  0  0
   -7.8994    3.6090   -1.8917 H   0  0  0  0  0  0  0  0  0  0  0  0
   -5.6504   -1.0004    3.7358 H   0  0  0  0  0  0  0  0  0  0  0  0
   -6.3728   -1.9754    2.4292 H   0  0  0  0  0  0  0  0  0  0  0  0
   -7.6463   -1.5159    4.8774 H   0  0  0  0  0  0  0  0  0  0  0  0
   -8.4471   -2.2326    3.4522 H   0  0  0  0  0  0  0  0  0  0  0  0
   -9.3581    0.2866    4.9320 H   0  0  0  0  0  0  0  0  0  0  0  0
  -10.1227   -1.3172    5.0311 H   0  0  0  0  0  0  0  0  0  0  0  0
  -10.1441   -0.3915    3.5092 H   0  0  0  0  0  0  0  0  0  0  0  0
   -2.0246   -5.6609   -0.9039 H   0  0  0  0  0  0  0  0  0  0  0  0
   -1.8903   -4.4607    0.3925 H   0  0  0  0  0  0  0  0  0  0  0  0
   -5.6407   -5.8750    0.2102 H   0  0  0  0  0  0  0  0  0  0  0  0
   -5.2261   -4.6117   -0.9273 H   0  0  0  0  0  0  0  0  0  0  0  0
   -3.9442   -6.3429   -2.2926 H   0  0  0  0  0  0  0  0  0  0  0  0
   -5.6580   -6.7543   -2.0975 H   0  0  0  0  0  0  0  0  0  0  0  0
   -4.4143   -7.5712   -1.1222 H   0  0  0  0  0  0  0  0  0  0  0  0
   -1.0392   -6.1900   -3.4089 H   0  0  0  0  0  0  0  0  0  0  0  0
    0.1322   -7.1588   -4.3322 H   0  0  0  0  0  0  0  0  0  0  0  0
   -0.3402   -9.0774   -2.7349 H   0  0  0  0  0  0  0  0  0  0  0  0
   -1.5320   -8.0679   -1.9216 H   0  0  0  0  0  0  0  0  0  0  0  0
   -1.7999   -8.5470   -3.6112 H   0  0  0  0  0  0  0  0  0  0  0  0
    4.5025   -4.6743   -2.4107 H   0  0  0  0  0  0  0  0  0  0  0  0
  1  2  1  0  0  0  0
  1106  1  0  0  0  0
  1107  1  0  0  0  0
  1108  1  0  0  0  0
  2  3  1  0  0  0  0
  2109  1  0  0  0  0
  2110  1  0  0  0  0
  3  4  1  0  0  0  0
  4  5  1  0  0  0  0
  4111  1  0  0  0  0
  4112  1  0  0  0  0
  5  6  1  0  0  0  0
  5 10  1  0  0  0  0
  5113  1  6  0  0  0
  6  7  1  0  0  0  0
  6 71  1  0  0  0  0
  6114  1  6  0  0  0
  7  8  1  0  0  0  0
  7105  1  0  0  0  0
  7115  1  1  0  0  0
  8  9  1  0  0  0  0
  8102  1  0  0  0  0
  8116  1  6  0  0  0
  9 10  1  0  0  0  0
  9 11  1  0  0  0  0
  9117  1  6  0  0  0
 11 12  1  0  0  0  0
 12 13  1  0  0  0  0
 12 17  1  0  0  0  0
 12118  1  1  0  0  0
 13 14  1  0  0  0  0
 13 98  1  0  0  0  0
 13119  1  6  0  0  0
 14 15  1  0  0  0  0
 15 16  1  0  0  0  0
 15 22  1  0  0  0  0
 15120  1  1  0  0  0
 16 17  1  0  0  0  0
 16 19  1  0  0  0  0
 16121  1  1  0  0  0
 17 18  1  0  0  0  0
 17122  1  6  0  0  0
 18123  1  0  0  0  0
 19 20  1  0  0  0  0
 20 21  1  0  0  0  0
 20124  1  0  0  0  0
 20125  1  0  0  0  0
 21126  1  0  0  0  0
 21127  1  0  0  0  0
 21128  1  0  0  0  0
 22 23  1  0  0  0  0
 23 24  1  0  0  0  0
 23 28  1  0  0  0  0
 23129  1  6  0  0  0
 24 25  1  0  0  0  0
 24 94  1  0  0  0  0
 24130  1  6  0  0  0
 25 26  1  0  0  0  0
 26 27  1  0  0  0  0
 26 33  1  0  0  0  0
 26131  1  1  0  0  0
 27 28  1  0  0  0  0
 27 30  1  0  0  0  0
 27132  1  1  0  0  0
 28 29  1  0  0  0  0
 28133  1  6  0  0  0
 29134  1  0  0  0  0
 30 31  1  0  0  0  0
 31 32  1  0  0  0  0
 31135  1  0  0  0  0
 31136  1  0  0  0  0
 32137  1  0  0  0  0
 32138  1  0  0  0  0
 32139  1  0  0  0  0
 33 34  1  0  0  0  0
 34 35  1  0  0  0  0
 34 39  1  0  0  0  0
 34140  1  6  0  0  0
 35 36  1  0  0  0  0
 35 90  1  0  0  0  0
 35141  1  6  0  0  0
 36 37  1  0  0  0  0
 37 38  1  0  0  0  0
 37 44  1  0  0  0  0
 37142  1  6  0  0  0
 38 39  1  0  0  0  0
 38 41  1  0  0  0  0
 38143  1  6  0  0  0
 39 40  1  0  0  0  0
 39144  1  1  0  0  0
 40145  1  0  0  0  0
 41 42  1  0  0  0  0
 42 43  1  0  0  0  0
 42146  1  0  0  0  0
 42147  1  0  0  0  0
 43148  1  0  0  0  0
 43149  1  0  0  0  0
 43150  1  0  0  0  0
 44 45  1  0  0  0  0
 45 46  1  0  0  0  0
 45 50  1  0  0  0  0
 45151  1  6  0  0  0
 46 47  1  0  0  0  0
 46 86  1  0  0  0  0
 46152  1  6  0  0  0
 47 48  1  0  0  0  0
 48 49  1  0  0  0  0
 48 55  1  0  0  0  0
 48153  1  6  0  0  0
 49 50  1  0  0  0  0
 49 52  1  0  0  0  0
 49154  1  6  0  0  0
 50 51  1  0  0  0  0
 50155  1  1  0  0  0
 51156  1  0  0  0  0
 52 53  1  0  0  0  0
 53 54  1  0  0  0  0
 53157  1  0  0  0  0
 53158  1  0  0  0  0
 54159  1  0  0  0  0
 54160  1  0  0  0  0
 54161  1  0  0  0  0
 55 56  1  0  0  0  0
 56 57  1  0  0  0  0
 56 61  1  0  0  0  0
 56162  1  1  0  0  0
 57 58  1  0  0  0  0
 57 82  1  0  0  0  0
 57163  1  1  0  0  0
 58 59  1  0  0  0  0
 59 60  1  0  0  0  0
 59 66  1  0  0  0  0
 59164  1  1  0  0  0
 60 61  1  0  0  0  0
 60 63  1  0  0  0  0
 60165  1  1  0  0  0
 61 62  1  0  0  0  0
 61166  1  6  0  0  0
 62167  1  0  0  0  0
 63 64  1  0  0  0  0
 64 65  1  0  0  0  0
 64168  1  0  0  0  0
 64169  1  0  0  0  0
 65170  1  0  0  0  0
 65171  1  0  0  0  0
 65172  1  0  0  0  0
 66 67  1  0  0  0  0
 67 68  1  0  0  0  0
 67 73  1  0  0  0  0
 67173  1  1  0  0  0
 68 69  1  0  0  0  0
 68 78  1  0  0  0  0
 68174  1  6  0  0  0
 69 70  1  0  0  0  0
 70 71  1  0  0  0  0
 70 72  1  0  0  0  0
 70175  1  1  0  0  0
 72 73  1  0  0  0  0
 72 75  1  0  0  0  0
 72176  1  1  0  0  0
 73 74  1  0  0  0  0
 73177  1  1  0  0  0
 74178  1  0  0  0  0
 75 76  1  0  0  0  0
 76 77  1  0  0  0  0
 76179  1  0  0  0  0
 76180  1  0  0  0  0
 77181  1  0  0  0  0
 77182  1  0  0  0  0
 77183  1  0  0  0  0
 78 79  1  0  0  0  0
 78184  1  0  0  0  0
 78185  1  0  0  0  0
 79 80  1  0  0  0  0
 80 81  1  0  0  0  0
 80186  1  0  0  0  0
 80187  1  0  0  0  0
 81188  1  0  0  0  0
 81189  1  0  0  0  0
 81190  1  0  0  0  0
 82 83  1  0  0  0  0
 82191  1  0  0  0  0
 82192  1  0  0  0  0
 83 84  1  0  0  0  0
 84 85  1  0  0  0  0
 84193  1  0  0  0  0
 84194  1  0  0  0  0
 85195  1  0  0  0  0
 85196  1  0  0  0  0
 85197  1  0  0  0  0
 86 87  1  0  0  0  0
 86198  1  0  0  0  0
 86199  1  0  0  0  0
 87 88  1  0  0  0  0
 88 89  1  0  0  0  0
 88200  1  0  0  0  0
 88201  1  0  0  0  0
 89202  1  0  0  0  0
 89203  1  0  0  0  0
 89204  1  0  0  0  0
 90 91  1  0  0  0  0
 90205  1  0  0  0  0
 90206  1  0  0  0  0
 91 92  1  0  0  0  0
 92 93  1  0  0  0  0
 92207  1  0  0  0  0
 92208  1  0  0  0  0
 93209  1  0  0  0  0
 93210  1  0  0  0  0
 93211  1  0  0  0  0
 94 95  1  0  0  0  0
 94212  1  0  0  0  0
 94213  1  0  0  0  0
 95 96  1  0  0  0  0
 96 97  1  0  0  0  0
 96214  1  0  0  0  0
 96215  1  0  0  0  0
 97216  1  0  0  0  0
 97217  1  0  0  0  0
 97218  1  0  0  0  0
 98 99  1  0  0  0  0
 98219  1  0  0  0  0
 98220  1  0  0  0  0
 99100  1  0  0  0  0
100101  1  0  0  0  0
100221  1  0  0  0  0
100222  1  0  0  0  0
101223  1  0  0  0  0
101224  1  0  0  0  0
101225  1  0  0  0  0
102103  1  0  0  0  0
103104  1  0  0  0  0
103226  1  0  0  0  0
103227  1  0  0  0  0
104228  1  0  0  0  0
104229  1  0  0  0  0
104230  1  0  0  0  0
105231  1  0  0  0  0
M  END
