
 OpenBabel10072616343D

 70 72  0  0  1  0  0  0  0  0999 V2000
    0.4288    0.2898   -0.2945 C   0  0  0  0  0  0  0  0  0  0  0  0
   -0.1438   -0.0463    1.0784 C   0  0  0  0  0  0  0  0  0  0  0  0
    0.6563    0.5085    2.2689 C   0  0  1  0  0  0  0  0  0  0  0  0
    2.1781    0.1272    2.3710 C   0  0  1  0  0  0  0  0  0  0  0  0
    2.9800    1.1317    3.2499 C   0  0  0  0  0  0  0  0  0  0  0  0
    2.8882    0.9172    4.7728 C   0  0  2  0  0  0  0  0  0  0  0  0
    3.1392   -0.5712    5.0730 C   0  0  0  0  0  0  0  0  0  0  0  0
    2.2755   -1.5001    4.2136 C   0  0  0  0  0  0  0  0  0  0  0  0
    2.5401   -1.2543    2.7953 N   0  0  0  0  0  0  0  0  0  0  0  0
    2.0394   -2.3008    1.9065 C   0  0  0  0  0  0  0  0  0  0  0  0
    2.7522   -3.6567    2.0487 C   0  0  0  0  0  0  0  0  0  0  0  0
    2.4691   -4.4887    0.8012 C   0  0  0  0  0  0  0  0  0  0  0  0
    2.6398   -5.9130    1.0038 N   0  0  0  0  0  0  0  0  0  0  0  0
    2.1271   -6.7527    0.0304 C   0  0  0  0  0  0  0  0  0  0  0  0
    1.5137   -6.3245   -0.9427 O   0  0  0  0  0  0  0  0  0  0  0  0
    2.3651   -8.0750    0.3190 N   0  0  0  0  0  0  0  0  0  0  0  0
    2.0696   -9.1709   -0.5219 C   0  0  0  0  0  0  0  0  0  0  0  0
    1.7462   -9.0350   -1.8750 C   0  0  0  0  0  0  0  0  0  0  0  0
    1.4551  -10.1495   -2.6655 C   0  0  0  0  0  0  0  0  0  0  0  0
    1.4803  -11.4220   -2.1039 C   0  0  0  0  0  0  0  0  0  0  0  0
    1.8163  -11.5795   -0.7557 C   0  0  0  0  0  0  0  0  0  0  0  0
    2.1246  -10.4546    0.0279 C   0  0  0  0  0  0  0  0  0  0  0  0
    1.8481  -12.9254   -0.1117 C   0  0  0  0  0  0  0  0  0  0  0  0
    2.3869  -13.0716    0.9794 O   0  0  0  0  0  0  0  0  0  0  0  0
    1.1906  -14.0742   -0.8378 C   0  0  0  0  0  0  0  0  0  0  0  0
    1.5800    1.3735    5.4629 C   0  0  0  0  0  0  0  0  0  0  0  0
    1.1133    2.8052    5.3264 C   0  0  0  0  0  0  0  0  0  0  0  0
    1.9835    3.8747    5.0862 C   0  0  0  0  0  0  0  0  0  0  0  0
    1.4949    5.1809    4.9832 C   0  0  0  0  0  0  0  0  0  0  0  0
    0.1365    5.4395    5.1523 C   0  0  0  0  0  0  0  0  0  0  0  0
   -0.7389    4.3916    5.4215 C   0  0  0  0  0  0  0  0  0  0  0  0
   -0.2525    3.0862    5.5150 C   0  0  0  0  0  0  0  0  0  0  0  0
    0.5239    1.9334    2.1969 O   0  0  0  0  0  0  0  0  0  0  0  0
   -0.2575   -0.0674   -1.0706 H   0  0  0  0  0  0  0  0  0  0  0  0
    1.3947   -0.1970   -0.4584 H   0  0  0  0  0  0  0  0  0  0  0  0
    0.5570    1.3698   -0.4268 H   0  0  0  0  0  0  0  0  0  0  0  0
   -0.2841   -1.1248    1.1605 H   0  0  0  0  0  0  0  0  0  0  0  0
   -1.1539    0.3833    1.1211 H   0  0  0  0  0  0  0  0  0  0  0  0
    0.1508    0.1850    3.1834 H   0  0  0  0  0  0  0  0  0  0  0  0
    2.6069    0.2761    1.3712 H   0  0  0  0  0  0  0  0  0  0  0  0
    2.7418    2.1662    2.9845 H   0  0  0  0  0  0  0  0  0  0  0  0
    4.0427    1.0251    2.9776 H   0  0  0  0  0  0  0  0  0  0  0  0
    3.7109    1.4831    5.2315 H   0  0  0  0  0  0  0  0  0  0  0  0
    2.9698   -0.7859    6.1359 H   0  0  0  0  0  0  0  0  0  0  0  0
    4.1971   -0.7967    4.8775 H   0  0  0  0  0  0  0  0  0  0  0  0
    1.2118   -1.3889    4.4544 H   0  0  0  0  0  0  0  0  0  0  0  0
    2.5434   -2.5254    4.4883 H   0  0  0  0  0  0  0  0  0  0  0  0
    2.1773   -1.9673    0.8713 H   0  0  0  0  0  0  0  0  0  0  0  0
    0.9698   -2.4710    2.0718 H   0  0  0  0  0  0  0  0  0  0  0  0
    2.3870   -4.1783    2.9417 H   0  0  0  0  0  0  0  0  0  0  0  0
    3.8349   -3.5249    2.1691 H   0  0  0  0  0  0  0  0  0  0  0  0
    3.1286   -4.1797   -0.0199 H   0  0  0  0  0  0  0  0  0  0  0  0
    1.4387   -4.3219    0.4640 H   0  0  0  0  0  0  0  0  0  0  0  0
    3.5014   -6.2215    1.4320 H   0  0  0  0  0  0  0  0  0  0  0  0
    2.5706   -8.2798    1.2871 H   0  0  0  0  0  0  0  0  0  0  0  0
    1.7196   -8.0625   -2.3563 H   0  0  0  0  0  0  0  0  0  0  0  0
    1.2090  -10.0141   -3.7164 H   0  0  0  0  0  0  0  0  0  0  0  0
    1.2471  -12.2683   -2.7436 H   0  0  0  0  0  0  0  0  0  0  0  0
    2.3870  -10.5994    1.0725 H   0  0  0  0  0  0  0  0  0  0  0  0
    0.1433  -13.8275   -1.0480 H   0  0  0  0  0  0  0  0  0  0  0  0
    1.2111  -14.9609   -0.1957 H   0  0  0  0  0  0  0  0  0  0  0  0
    1.7378  -14.2987   -1.7598 H   0  0  0  0  0  0  0  0  0  0  0  0
    1.6909    1.1940    6.5419 H   0  0  0  0  0  0  0  0  0  0  0  0
    0.7617    0.7210    5.1475 H   0  0  0  0  0  0  0  0  0  0  0  0
    3.0500    3.7089    4.9630 H   0  0  0  0  0  0  0  0  0  0  0  0
    2.1792    5.9971    4.7645 H   0  0  0  0  0  0  0  0  0  0  0  0
   -0.2389    6.4570    5.0832 H   0  0  0  0  0  0  0  0  0  0  0  0
   -1.7983    4.5926    5.5572 H   0  0  0  0  0  0  0  0  0  0  0  0
   -0.9522    2.2827    5.7391 H   0  0  0  0  0  0  0  0  0  0  0  0
   -0.2792    2.1865    2.6855 H   0  0  0  0  0  0  0  0  0  0  0  0
  1  2  1  0  0  0  0
  1 34  1  0  0  0  0
  1 35  1  0  0  0  0
  1 36  1  0  0  0  0
  2  3  1  0  0  0  0
  2 37  1  0  0  0  0
  2 38  1  0  0  0  0
  3 33  1  0  0  0  0
  3 39  1  1  0  0  0
  4  5  1  0  0  0  0
  4  9  1  0  0  0  0
  4  3  1  0  0  0  0
  4 40  1  6  0  0  0
  5  6  1  0  0  0  0
  5 41  1  0  0  0  0
  5 42  1  0  0  0  0
  6  7  1  0  0  0  0
  6 26  1  0  0  0  0
  6 43  1  1  0  0  0
  7  8  1  0  0  0  0
  7 44  1  0  0  0  0
  7 45  1  0  0  0  0
  8  9  1  0  0  0  0
  8 46  1  0  0  0  0
  8 47  1  0  0  0  0
  9 10  1  0  0  0  0
 10 11  1  0  0  0  0
 10 48  1  0  0  0  0
 10 49  1  0  0  0  0
 11 12  1  0  0  0  0
 11 50  1  0  0  0  0
 11 51  1  0  0  0  0
 12 13  1  0  0  0  0
 12 52  1  0  0  0  0
 12 53  1  0  0  0  0
 13 14  1  0  0  0  0
 13 54  1  0  0  0  0
 14 15  2  0  0  0  0
 14 16  1  0  0  0  0
 16 17  1  0  0  0  0
 16 55  1  0  0  0  0
 17 18  2  0  0  0  0
 17 22  1  0  0  0  0
 18 19  1  0  0  0  0
 18 56  1  0  0  0  0
 19 20  2  0  0  0  0
 19 57  1  0  0  0  0
 20 21  1  0  0  0  0
 20 58  1  0  0  0  0
 21 22  2  0  0  0  0
 21 23  1  0  0  0  0
 22 59  1  0  0  0  0
 23 24  2  0  0  0  0
 23 25  1  0  0  0  0
 25 60  1  0  0  0  0
 25 61  1  0  0  0  0
 25 62  1  0  0  0  0
 26 27  1  0  0  0  0
 26 63  1  0  0  0  0
 26 64  1  0  0  0  0
 27 28  2  0  0  0  0
 27 32  1  0  0  0  0
 28 29  1  0  0  0  0
 28 65  1  0  0  0  0
 29 30  2  0  0  0  0
 29 66  1  0  0  0  0
 30 31  1  0  0  0  0
 30 67  1  0  0  0  0
 31 32  2  0  0  0  0
 31 68  1  0  0  0  0
 32 69  1  0  0  0  0
 33 70  1  0  0  0  0
M  END
