
 OpenBabel10072616403D

 44 43  0  0  0  0  0  0  0  0999 V2000
    2.2309    0.4330   -0.6607 C   0  0  0  0  0  0  0  0  0  0  0  0
    2.2029   -0.2375    0.6590 N   0  0  0  0  0  0  0  0  0  0  0  0
    0.8748   -0.1307    1.3224 C   0  0  0  0  0  0  0  0  0  0  0  0
    1.0141    0.1697    2.8179 C   0  0  0  0  0  0  0  0  0  0  0  0
    2.0078    1.2885    3.1391 C   0  0  0  0  0  0  0  0  0  0  0  0
    2.0350    1.5906    4.6323 C   0  0  0  0  0  0  0  0  0  0  0  0
    2.9874    2.6118    4.8997 O   0  0  0  0  0  0  0  0  0  0  0  0
    2.9450   -1.7860    0.7070 S   0  0  0  0  0  0  0  0  0  0  0  0
    2.7212   -2.3173    2.0347 O   0  0  0  0  0  0  0  0  0  0  0  0
    2.4619   -2.5042   -0.4523 O   0  0  0  0  0  0  0  0  0  0  0  0
    4.7211   -1.3914    0.5031 C   0  0  0  0  0  0  0  0  0  0  0  0
    5.5931   -2.4826    1.0892 C   0  0  0  0  0  0  0  0  0  0  0  0
    5.4645   -3.8717    0.4818 C   0  0  0  0  0  0  0  0  0  0  0  0
    5.8225   -4.0242   -0.9928 C   0  0  0  0  0  0  0  0  0  0  0  0
    7.2173   -3.6180   -1.4556 C   0  0  0  0  0  0  0  0  0  0  0  0
    8.3420   -4.3902   -0.8073 C   0  0  0  0  0  0  0  0  0  0  0  0
    9.6763   -3.9805   -1.4039 C   0  0  0  0  0  0  0  0  0  0  0  0
    9.9291   -2.6631   -1.2216 F   0  0  0  0  0  0  0  0  0  0  0  0
   10.6974   -4.6583   -0.8218 F   0  0  0  0  0  0  0  0  0  0  0  0
    9.7545   -4.2245   -2.7310 F   0  0  0  0  0  0  0  0  0  0  0  0
    8.3522   -4.1578    0.5338 F   0  0  0  0  0  0  0  0  0  0  0  0
    8.1439   -5.7282   -0.9565 F   0  0  0  0  0  0  0  0  0  0  0  0
    7.2741   -3.7925   -2.8112 F   0  0  0  0  0  0  0  0  0  0  0  0
    7.3815   -2.2808   -1.2716 F   0  0  0  0  0  0  0  0  0  0  0  0
    5.6096   -5.3279   -1.3526 F   0  0  0  0  0  0  0  0  0  0  0  0
    4.9097   -3.3128   -1.7215 F   0  0  0  0  0  0  0  0  0  0  0  0
    6.2322   -4.7421    1.2038 F   0  0  0  0  0  0  0  0  0  0  0  0
    4.1897   -4.3189    0.6664 F   0  0  0  0  0  0  0  0  0  0  0  0
    6.9057   -2.0972    0.9816 F   0  0  0  0  0  0  0  0  0  0  0  0
    5.3859   -2.5595    2.4387 F   0  0  0  0  0  0  0  0  0  0  0  0
    5.0454   -1.1855   -0.8083 F   0  0  0  0  0  0  0  0  0  0  0  0
    5.0227   -0.2012    1.1207 F   0  0  0  0  0  0  0  0  0  0  0  0
    1.9854    1.4925   -0.5399 H   0  0  0  0  0  0  0  0  0  0  0  0
    1.5064   -0.0194   -1.3446 H   0  0  0  0  0  0  0  0  0  0  0  0
    3.2270    0.3888   -1.1057 H   0  0  0  0  0  0  0  0  0  0  0  0
    0.2980   -1.0505    1.1666 H   0  0  0  0  0  0  0  0  0  0  0  0
    0.2897    0.6735    0.8585 H   0  0  0  0  0  0  0  0  0  0  0  0
    1.3084   -0.7375    3.3571 H   0  0  0  0  0  0  0  0  0  0  0  0
    0.0242    0.4425    3.2044 H   0  0  0  0  0  0  0  0  0  0  0  0
    1.7500    2.2002    2.5867 H   0  0  0  0  0  0  0  0  0  0  0  0
    3.0203    1.0160    2.8160 H   0  0  0  0  0  0  0  0  0  0  0  0
    2.3044    0.7037    5.2154 H   0  0  0  0  0  0  0  0  0  0  0  0
    1.0576    1.9435    4.9742 H   0  0  0  0  0  0  0  0  0  0  0  0
    3.8626    2.2573    4.6695 H   0  0  0  0  0  0  0  0  0  0  0  0
  1  2  1  0  0  0  0
  1 33  1  0  0  0  0
  1 34  1  0  0  0  0
  1 35  1  0  0  0  0
  2  3  1  0  0  0  0
  2  8  1  0  0  0  0
  3  4  1  0  0  0  0
  3 36  1  0  0  0  0
  3 37  1  0  0  0  0
  4  5  1  0  0  0  0
  4 38  1  0  0  0  0
  4 39  1  0  0  0  0
  5  6  1  0  0  0  0
  5 40  1  0  0  0  0
  5 41  1  0  0  0  0
  6  7  1  0  0  0  0
  6 42  1  0  0  0  0
  6 43  1  0  0  0  0
  7 44  1  0  0  0  0
  8  9  2  0  0  0  0
  8 10  2  0  0  0  0
  8 11  1  0  0  0  0
 11 12  1  0  0  0  0
 11 31  1  0  0  0  0
 11 32  1  0  0  0  0
 12 13  1  0  0  0  0
 12 29  1  0  0  0  0
 12 30  1  0  0  0  0
 13 14  1  0  0  0  0
 13 27  1  0  0  0  0
 13 28  1  0  0  0  0
 14 15  1  0  0  0  0
 14 25  1  0  0  0  0
 14 26  1  0  0  0  0
 15 16  1  0  0  0  0
 15 23  1  0  0  0  0
 15 24  1  0  0  0  0
 16 17  1  0  0  0  0
 16 21  1  0  0  0  0
 16 22  1  0  0  0  0
 17 18  1  0  0  0  0
 17 19  1  0  0  0  0
 17 20  1  0  0  0  0
M  END
