
 OpenBabel10072616323D

 36 38  0  0  0  0  0  0  0  0999 V2000
   -1.4637   -2.3362   -1.4851 C   0  0  0  0  0  0  0  0  0  0  0  0
   -0.9034   -1.1089   -0.8139 C   0  0  0  0  0  0  0  0  0  0  0  0
   -1.6181    0.0974   -0.9280 C   0  0  0  0  0  0  0  0  0  0  0  0
   -1.1502    1.2676   -0.3335 C   0  0  0  0  0  0  0  0  0  0  0  0
    0.0432    1.2529    0.3773 C   0  0  0  0  0  0  0  0  0  0  0  0
    0.7707    0.0669    0.4915 C   0  0  0  0  0  0  0  0  0  0  0  0
    0.3153   -1.1304   -0.0962 C   0  0  0  0  0  0  0  0  0  0  0  0
    1.1156   -2.3604    0.0217 C   0  0  0  0  0  0  0  0  0  0  0  0
    1.3286   -3.2318   -0.9471 N   0  0  0  0  0  0  0  0  0  0  0  0
    2.1004   -4.2990   -0.5370 N   0  0  0  0  0  0  0  0  0  0  0  0
    2.4382   -4.2053    0.7294 C   0  0  0  0  0  0  0  0  0  0  0  0
    1.8487   -2.8167    1.5131 S   0  0  0  0  0  0  0  0  0  0  0  0
    3.2334   -5.1472    1.3326 N   0  0  0  0  0  0  0  0  0  0  0  0
    3.5838   -5.2097    2.6657 C   0  0  0  0  0  0  0  0  0  0  0  0
    3.1652   -4.4623    3.5390 O   0  0  0  0  0  0  0  0  0  0  0  0
    4.4912   -6.2413    2.8740 N   0  0  0  0  0  0  0  0  0  0  0  0
    5.0556   -6.6640    4.0964 C   0  0  0  0  0  0  0  0  0  0  0  0
    4.6973   -6.1529    5.3447 C   0  0  0  0  0  0  0  0  0  0  0  0
    5.3069   -6.6330    6.5087 C   0  0  0  0  0  0  0  0  0  0  0  0
    6.2767   -7.6299    6.4353 C   0  0  0  0  0  0  0  0  0  0  0  0
    6.6375   -8.1509    5.1965 C   0  0  0  0  0  0  0  0  0  0  0  0
    6.0293   -7.6710    4.0336 C   0  0  0  0  0  0  0  0  0  0  0  0
   -2.4998   -2.1775   -1.8036 H   0  0  0  0  0  0  0  0  0  0  0  0
   -1.4732   -3.1870   -0.7963 H   0  0  0  0  0  0  0  0  0  0  0  0
   -0.8766   -2.5840   -2.3746 H   0  0  0  0  0  0  0  0  0  0  0  0
   -2.5526    0.1299   -1.4848 H   0  0  0  0  0  0  0  0  0  0  0  0
   -1.7169    2.1902   -0.4294 H   0  0  0  0  0  0  0  0  0  0  0  0
    0.4145    2.1648    0.8376 H   0  0  0  0  0  0  0  0  0  0  0  0
    1.7125    0.0956    1.0368 H   0  0  0  0  0  0  0  0  0  0  0  0
    3.4806   -5.9059    0.7190 H   0  0  0  0  0  0  0  0  0  0  0  0
    4.8579   -6.6900    2.0489 H   0  0  0  0  0  0  0  0  0  0  0  0
    3.9429   -5.3798    5.4528 H   0  0  0  0  0  0  0  0  0  0  0  0
    5.0185   -6.2238    7.4738 H   0  0  0  0  0  0  0  0  0  0  0  0
    6.7480   -7.9988    7.3424 H   0  0  0  0  0  0  0  0  0  0  0  0
    7.3923   -8.9304    5.1339 H   0  0  0  0  0  0  0  0  0  0  0  0
    6.3313   -8.0968    3.0805 H   0  0  0  0  0  0  0  0  0  0  0  0
  1  2  1  0  0  0  0
  1 23  1  0  0  0  0
  1 24  1  0  0  0  0
  1 25  1  0  0  0  0
  2  3  2  0  0  0  0
  2  7  1  0  0  0  0
  3  4  1  0  0  0  0
  3 26  1  0  0  0  0
  4  5  2  0  0  0  0
  4 27  1  0  0  0  0
  5  6  1  0  0  0  0
  5 28  1  0  0  0  0
  6  7  2  0  0  0  0
  6 29  1  0  0  0  0
  7  8  1  0  0  0  0
  8  9  2  0  0  0  0
  8 12  1  0  0  0  0
  9 10  1  0  0  0  0
 10 11  2  0  0  0  0
 11 12  1  0  0  0  0
 11 13  1  0  0  0  0
 13 14  1  0  0  0  0
 13 30  1  0  0  0  0
 14 15  2  0  0  0  0
 14 16  1  0  0  0  0
 16 17  1  0  0  0  0
 16 31  1  0  0  0  0
 17 18  2  0  0  0  0
 17 22  1  0  0  0  0
 18 19  1  0  0  0  0
 18 32  1  0  0  0  0
 19 20  2  0  0  0  0
 19 33  1  0  0  0  0
 20 21  1  0  0  0  0
 20 34  1  0  0  0  0
 21 22  2  0  0  0  0
 21 35  1  0  0  0  0
 22 36  1  0  0  0  0
M  END
