
 OpenBabel10072619593D

 42 44  0  0  0  0  0  0  0  0999 V2000
   -1.7995    0.3651    1.6505 C   0  0  0  0  0  0  0  0  0  0  0  0
   -1.9340    1.8512    2.0126 C   0  0  0  0  0  0  0  0  0  0  0  0
   -0.7257    2.5707    1.7146 O   0  0  0  0  0  0  0  0  0  0  0  0
   -0.3967    2.4660    0.3172 C   0  0  0  0  0  0  0  0  0  0  0  0
   -0.2584    0.9964   -0.1243 C   0  0  0  0  0  0  0  0  0  0  0  0
   -1.4833    0.2261    0.2074 N   0  0  0  0  0  0  0  0  0  0  0  0
   -2.5471    0.1499   -0.6960 C   0  0  0  0  0  0  0  0  0  0  0  0
   -2.5229    0.7643   -1.9577 C   0  0  0  0  0  0  0  0  0  0  0  0
   -3.6014    0.6749   -2.8530 C   0  0  0  0  0  0  0  0  0  0  0  0
   -4.7522   -0.0191   -2.5070 C   0  0  0  0  0  0  0  0  0  0  0  0
   -4.7927   -0.6867   -1.2931 C   0  0  0  0  0  0  0  0  0  0  0  0
   -3.6974   -0.6145   -0.4117 C   0  0  0  0  0  0  0  0  0  0  0  0
   -5.8467   -0.0558   -3.4126 N   0  0  0  0  0  0  0  0  0  0  0  0
   -5.8740   -1.2288   -4.6226 S   0  0  0  0  0  0  0  0  0  0  0  0
   -7.0319   -0.9800   -5.4490 O   0  0  0  0  0  0  0  0  0  0  0  0
   -4.5568   -1.3476   -5.2153 O   0  0  0  0  0  0  0  0  0  0  0  0
   -6.1963   -2.7278   -3.7303 C   0  0  0  0  0  0  0  0  0  0  0  0
   -5.1545   -3.6337   -3.5036 C   0  0  0  0  0  0  0  0  0  0  0  0
   -5.4130   -4.8519   -2.8609 C   0  0  0  0  0  0  0  0  0  0  0  0
   -6.7100   -5.1818   -2.4541 C   0  0  0  0  0  0  0  0  0  0  0  0
   -7.7581   -4.2956   -2.6962 C   0  0  0  0  0  0  0  0  0  0  0  0
   -7.4923   -3.0761   -3.3389 C   0  0  0  0  0  0  0  0  0  0  0  0
   -8.5960   -2.1481   -3.4802 N   0  3  0  0  0  0  0  0  0  0  0  0
   -9.5869   -2.5295   -4.1148 O   0  0  0  0  0  0  0  0  0  0  0  0
   -8.4855   -1.0757   -2.8661 O   0  5  0  0  0  0  0  0  0  0  0  0
   -2.6974   -0.1734    1.9602 H   0  0  0  0  0  0  0  0  0  0  0  0
   -0.9614   -0.0625    2.2161 H   0  0  0  0  0  0  0  0  0  0  0  0
   -2.1107    1.9559    3.0869 H   0  0  0  0  0  0  0  0  0  0  0  0
   -2.7691    2.3198    1.4790 H   0  0  0  0  0  0  0  0  0  0  0  0
    0.5626    2.9762    0.1681 H   0  0  0  0  0  0  0  0  0  0  0  0
   -1.1597    2.9932   -0.2699 H   0  0  0  0  0  0  0  0  0  0  0  0
    0.5707    0.5410    0.4326 H   0  0  0  0  0  0  0  0  0  0  0  0
    0.0228    0.9193   -1.1795 H   0  0  0  0  0  0  0  0  0  0  0  0
   -1.6754    1.3559   -2.2898 H   0  0  0  0  0  0  0  0  0  0  0  0
   -3.5408    1.1904   -3.8066 H   0  0  0  0  0  0  0  0  0  0  0  0
   -5.6648   -1.2658   -1.0106 H   0  0  0  0  0  0  0  0  0  0  0  0
   -3.7638   -1.1850    0.5116 H   0  0  0  0  0  0  0  0  0  0  0  0
   -6.7786    0.1258   -3.0249 H   0  0  0  0  0  0  0  0  0  0  0  0
   -4.1382   -3.4102   -3.8292 H   0  0  0  0  0  0  0  0  0  0  0  0
   -4.6021   -5.5565   -2.6809 H   0  0  0  0  0  0  0  0  0  0  0  0
   -6.9062   -6.1269   -1.9485 H   0  0  0  0  0  0  0  0  0  0  0  0
   -8.7694   -4.5517   -2.3803 H   0  0  0  0  0  0  0  0  0  0  0  0
  1  2  1  0  0  0  0
  1  6  1  0  0  0  0
  1 26  1  0  0  0  0
  1 27  1  0  0  0  0
  2  3  1  0  0  0  0
  2 28  1  0  0  0  0
  2 29  1  0  0  0  0
  3  4  1  0  0  0  0
  4  5  1  0  0  0  0
  4 30  1  0  0  0  0
  4 31  1  0  0  0  0
  5  6  1  0  0  0  0
  5 32  1  0  0  0  0
  5 33  1  0  0  0  0
  6  7  1  0  0  0  0
  7  8  2  0  0  0  0
  7 12  1  0  0  0  0
  8  9  1  0  0  0  0
  8 34  1  0  0  0  0
  9 10  2  0  0  0  0
  9 35  1  0  0  0  0
 10 11  1  0  0  0  0
 10 13  1  0  0  0  0
 11 12  2  0  0  0  0
 11 36  1  0  0  0  0
 12 37  1  0  0  0  0
 13 14  1  0  0  0  0
 13 38  1  0  0  0  0
 14 15  2  0  0  0  0
 14 16  2  0  0  0  0
 14 17  1  0  0  0  0
 17 18  2  0  0  0  0
 17 22  1  0  0  0  0
 18 19  1  0  0  0  0
 18 39  1  0  0  0  0
 19 20  2  0  0  0  0
 19 40  1  0  0  0  0
 20 21  1  0  0  0  0
 20 41  1  0  0  0  0
 21 22  2  0  0  0  0
 21 42  1  0  0  0  0
 22 23  1  0  0  0  0
 23 24  2  0  0  0  0
 23 25  1  0  0  0  0
M  CHG  2  23   1  25  -1
M  END
