
 OpenBabel10072620103D

 62 63  0  0  0  0  0  0  0  0999 V2000
    3.5718   -1.3165   -5.1081 C   0  0  0  0  0  0  0  0  0  0  0  0
    3.5564    0.1262   -4.6296 C   0  0  0  0  0  0  0  0  0  0  0  0
    4.4377    0.3187   -3.3943 C   0  0  0  0  0  0  0  0  0  0  0  0
    4.4302    1.7804   -2.9342 C   0  0  0  0  0  0  0  0  0  0  0  0
    5.2860    2.0238   -1.6848 C   0  0  0  0  0  0  0  0  0  0  0  0
    6.7640    1.7819   -1.8828 C   0  0  0  0  0  0  0  0  0  0  0  0
    7.4187    0.7809   -1.1556 C   0  0  0  0  0  0  0  0  0  0  0  0
    8.7939    0.5360   -1.3197 C   0  0  0  0  0  0  0  0  0  0  0  0
    9.5206    1.3023   -2.2489 C   0  0  0  0  0  0  0  0  0  0  0  0
    8.8722    2.3123   -2.9665 C   0  0  0  0  0  0  0  0  0  0  0  0
    7.5082    2.5557   -2.7767 C   0  0  0  0  0  0  0  0  0  0  0  0
   10.8443    0.9769   -2.3882 O   0  0  0  0  0  0  0  0  0  0  0  0
   11.6371    1.7876   -3.2488 C   0  0  0  0  0  0  0  0  0  0  0  0
   13.0613    1.2443   -3.1971 C   0  0  0  0  0  0  0  0  0  0  0  0
   13.0834   -0.2395   -3.5464 C   0  0  0  0  0  0  0  0  0  0  0  0
   14.4884   -0.7100   -3.6162 N   0  3  0  0  0  0  0  0  0  0  0  0
   15.1435   -0.6888   -4.8006 C   0  0  0  0  0  0  0  0  0  0  0  0
   16.4523   -1.1457   -4.8950 C   0  0  0  0  0  0  0  0  0  0  0  0
   17.0869   -1.6303   -3.7588 C   0  0  0  0  0  0  0  0  0  0  0  0
   16.4026   -1.6489   -2.5505 C   0  0  0  0  0  0  0  0  0  0  0  0
   15.0946   -1.1809   -2.5004 C   0  0  0  0  0  0  0  0  0  0  0  0
    9.4405   -0.5437   -0.4770 C   0  0  0  0  0  0  0  0  0  0  0  0
   10.4487   -0.0337    0.5621 C   0  0  0  0  0  0  0  0  0  0  0  0
    9.8327    0.9120    1.5991 C   0  0  0  0  0  0  0  0  0  0  0  0
   10.8733    1.3416    2.6353 C   0  0  0  0  0  0  0  0  0  0  0  0
   10.2971    2.3288    3.6375 C   0  0  0  0  0  0  0  0  0  0  0  0
    2.9254   -1.4323   -5.9838 H   0  0  0  0  0  0  0  0  0  0  0  0
    3.2110   -1.9923   -4.3266 H   0  0  0  0  0  0  0  0  0  0  0  0
    4.5834   -1.6255   -5.3903 H   0  0  0  0  0  0  0  0  0  0  0  0
    2.5250    0.4186   -4.4011 H   0  0  0  0  0  0  0  0  0  0  0  0
    3.9043    0.7761   -5.4407 H   0  0  0  0  0  0  0  0  0  0  0  0
    5.4604    0.0009   -3.6289 H   0  0  0  0  0  0  0  0  0  0  0  0
    4.0766   -0.3241   -2.5822 H   0  0  0  0  0  0  0  0  0  0  0  0
    3.3979    2.0728   -2.7017 H   0  0  0  0  0  0  0  0  0  0  0  0
    4.7622    2.4269   -3.7556 H   0  0  0  0  0  0  0  0  0  0  0  0
    4.9081    1.3989   -0.8654 H   0  0  0  0  0  0  0  0  0  0  0  0
    5.1555    3.0626   -1.3565 H   0  0  0  0  0  0  0  0  0  0  0  0
    6.8493    0.1842   -0.4438 H   0  0  0  0  0  0  0  0  0  0  0  0
    9.3905    2.9377   -3.6858 H   0  0  0  0  0  0  0  0  0  0  0  0
    7.0276    3.3566   -3.3357 H   0  0  0  0  0  0  0  0  0  0  0  0
   11.6362    2.8290   -2.9072 H   0  0  0  0  0  0  0  0  0  0  0  0
   11.2650    1.7299   -4.2794 H   0  0  0  0  0  0  0  0  0  0  0  0
   13.4659    1.3756   -2.1851 H   0  0  0  0  0  0  0  0  0  0  0  0
   13.7004    1.8170   -3.8789 H   0  0  0  0  0  0  0  0  0  0  0  0
   12.6161   -0.4375   -4.5184 H   0  0  0  0  0  0  0  0  0  0  0  0
   12.5709   -0.8521   -2.7956 H   0  0  0  0  0  0  0  0  0  0  0  0
   14.6102   -0.3041   -5.6652 H   0  0  0  0  0  0  0  0  0  0  0  0
   16.9752   -1.1255   -5.8489 H   0  0  0  0  0  0  0  0  0  0  0  0
   18.1122   -1.9938   -3.8157 H   0  0  0  0  0  0  0  0  0  0  0  0
   16.8869   -2.0279   -1.6523 H   0  0  0  0  0  0  0  0  0  0  0  0
   14.5236   -1.1782   -1.5761 H   0  0  0  0  0  0  0  0  0  0  0  0
    9.9397   -1.2543   -1.1483 H   0  0  0  0  0  0  0  0  0  0  0  0
    8.6674   -1.1259    0.0418 H   0  0  0  0  0  0  0  0  0  0  0  0
   11.2897    0.4670    0.0683 H   0  0  0  0  0  0  0  0  0  0  0  0
   10.8698   -0.9049    1.0804 H   0  0  0  0  0  0  0  0  0  0  0  0
    8.9949    0.4144    2.1027 H   0  0  0  0  0  0  0  0  0  0  0  0
    9.4325    1.8045    1.1033 H   0  0  0  0  0  0  0  0  0  0  0  0
   11.7288    1.8070    2.1321 H   0  0  0  0  0  0  0  0  0  0  0  0
   11.2512    0.4628    3.1710 H   0  0  0  0  0  0  0  0  0  0  0  0
    9.9156    3.2228    3.1346 H   0  0  0  0  0  0  0  0  0  0  0  0
   11.0700    2.6452    4.3447 H   0  0  0  0  0  0  0  0  0  0  0  0
    9.4784    1.8805    4.2082 H   0  0  0  0  0  0  0  0  0  0  0  0
  1  2  1  0  0  0  0
  1 27  1  0  0  0  0
  1 28  1  0  0  0  0
  1 29  1  0  0  0  0
  2  3  1  0  0  0  0
  2 30  1  0  0  0  0
  2 31  1  0  0  0  0
  3  4  1  0  0  0  0
  3 32  1  0  0  0  0
  3 33  1  0  0  0  0
  4  5  1  0  0  0  0
  4 34  1  0  0  0  0
  4 35  1  0  0  0  0
  5  6  1  0  0  0  0
  5 36  1  0  0  0  0
  5 37  1  0  0  0  0
  6  7  2  0  0  0  0
  6 11  1  0  0  0  0
  7  8  1  0  0  0  0
  7 38  1  0  0  0  0
  8  9  2  0  0  0  0
  8 22  1  0  0  0  0
  9 10  1  0  0  0  0
  9 12  1  0  0  0  0
 10 11  2  0  0  0  0
 10 39  1  0  0  0  0
 11 40  1  0  0  0  0
 12 13  1  0  0  0  0
 13 14  1  0  0  0  0
 13 41  1  0  0  0  0
 13 42  1  0  0  0  0
 14 15  1  0  0  0  0
 14 43  1  0  0  0  0
 14 44  1  0  0  0  0
 15 16  1  0  0  0  0
 15 45  1  0  0  0  0
 15 46  1  0  0  0  0
 16 17  2  0  0  0  0
 16 21  1  0  0  0  0
 17 18  1  0  0  0  0
 17 47  1  0  0  0  0
 18 19  2  0  0  0  0
 18 48  1  0  0  0  0
 19 20  1  0  0  0  0
 19 49  1  0  0  0  0
 20 21  2  0  0  0  0
 20 50  1  0  0  0  0
 21 51  1  0  0  0  0
 22 23  1  0  0  0  0
 22 52  1  0  0  0  0
 22 53  1  0  0  0  0
 23 24  1  0  0  0  0
 23 54  1  0  0  0  0
 23 55  1  0  0  0  0
 24 25  1  0  0  0  0
 24 56  1  0  0  0  0
 24 57  1  0  0  0  0
 25 26  1  0  0  0  0
 25 58  1  0  0  0  0
 25 59  1  0  0  0  0
 26 60  1  0  0  0  0
 26 61  1  0  0  0  0
 26 62  1  0  0  0  0
M  CHG  1  16   1
M  END
