
 OpenBabel10072619583D

 57 60  0  0  0  0  0  0  0  0999 V2000
    0.8174   -8.1075    6.5188 C   0  0  0  0  0  0  0  0  0  0  0  0
    1.3138   -7.2686    5.3526 C   0  0  0  0  0  0  0  0  0  0  0  0
    1.3317   -5.8867    5.7388 O   0  0  0  0  0  0  0  0  0  0  0  0
    1.4700   -4.9924    4.7073 C   0  0  0  0  0  0  0  0  0  0  0  0
    1.9247   -5.3282    3.4327 C   0  0  0  0  0  0  0  0  0  0  0  0
    1.9693   -4.3687    2.4245 C   0  0  0  0  0  0  0  0  0  0  0  0
    1.5884   -3.0503    2.6927 C   0  0  0  0  0  0  0  0  0  0  0  0
    1.1752   -2.6837    3.9761 C   0  0  0  0  0  0  0  0  0  0  0  0
    1.1222   -3.6626    4.9812 C   0  0  0  0  0  0  0  0  0  0  0  0
    1.7038   -1.8494    1.3712 S   0  0  0  0  0  0  0  0  0  0  0  0
    2.4610   -2.5124    0.3289 O   0  0  0  0  0  0  0  0  0  0  0  0
    2.1877   -0.6150    1.9600 O   0  0  0  0  0  0  0  0  0  0  0  0
    0.1613   -1.6576    0.9317 N   0  0  0  0  0  0  0  0  0  0  0  0
   -0.2825   -0.8544    0.0127 C   0  0  0  0  0  0  0  0  0  0  0  0
   -1.7504   -0.5857    0.0853 C   0  0  0  0  0  0  0  0  0  0  0  0
   -2.2894    0.5668   -0.3390 C   0  0  0  0  0  0  0  0  0  0  0  0
   -1.4206    1.5433   -1.0840 C   0  0  0  0  0  0  0  0  0  0  0  0
   -1.8986    2.6127   -1.4603 O   0  0  0  0  0  0  0  0  0  0  0  0
   -0.0574    1.1346   -1.4640 C   0  0  0  0  0  0  0  0  0  0  0  0
    0.6526    1.9291   -2.3817 C   0  0  0  0  0  0  0  0  0  0  0  0
    1.8167    1.4436   -2.9716 C   0  0  0  0  0  0  0  0  0  0  0  0
    2.2438    0.1565   -2.6710 C   0  0  0  0  0  0  0  0  0  0  0  0
    1.5590   -0.6044   -1.7156 C   0  0  0  0  0  0  0  0  0  0  0  0
    0.4473   -0.0937   -1.0393 C   0  0  0  0  0  0  0  0  0  0  0  0
   -3.6189    0.9724   -0.2546 N   0  0  0  0  0  0  0  0  0  0  0  0
   -4.4151    1.1666    0.9095 C   0  0  0  0  0  0  0  0  0  0  0  0
   -5.7470    1.6268    0.7490 C   0  0  0  0  0  0  0  0  0  0  0  0
   -6.5749    1.8113    1.8721 C   0  0  0  0  0  0  0  0  0  0  0  0
   -6.0904    1.6130    3.1649 C   0  0  0  0  0  0  0  0  0  0  0  0
   -4.7775    1.1505    3.3183 C   0  0  0  0  0  0  0  0  0  0  0  0
   -3.9585    0.9126    2.2036 C   0  0  0  0  0  0  0  0  0  0  0  0
   -6.9932    1.8429    4.3443 C   0  0  0  0  0  0  0  0  0  0  0  0
   -6.3252    1.9158   -0.6105 C   0  0  0  0  0  0  0  0  0  0  0  0
    0.8039   -9.1759    6.2764 H   0  0  0  0  0  0  0  0  0  0  0  0
    1.4496   -7.9614    7.3999 H   0  0  0  0  0  0  0  0  0  0  0  0
   -0.1962   -7.8026    6.7959 H   0  0  0  0  0  0  0  0  0  0  0  0
    0.6434   -7.4167    4.4961 H   0  0  0  0  0  0  0  0  0  0  0  0
    2.3286   -7.5815    5.0829 H   0  0  0  0  0  0  0  0  0  0  0  0
    2.2570   -6.3323    3.1918 H   0  0  0  0  0  0  0  0  0  0  0  0
    2.3115   -4.6678    1.4364 H   0  0  0  0  0  0  0  0  0  0  0  0
    0.8928   -1.6579    4.2033 H   0  0  0  0  0  0  0  0  0  0  0  0
    0.7977   -3.3895    5.9834 H   0  0  0  0  0  0  0  0  0  0  0  0
   -2.3417   -1.3258    0.6175 H   0  0  0  0  0  0  0  0  0  0  0  0
    0.2761    2.9104   -2.6669 H   0  0  0  0  0  0  0  0  0  0  0  0
    2.3591    2.0453   -3.6975 H   0  0  0  0  0  0  0  0  0  0  0  0
    3.1039   -0.2702   -3.1839 H   0  0  0  0  0  0  0  0  0  0  0  0
    1.8941   -1.6236   -1.5744 H   0  0  0  0  0  0  0  0  0  0  0  0
   -3.7258    1.8162   -0.8267 H   0  0  0  0  0  0  0  0  0  0  0  0
   -7.6116    2.1107    1.7324 H   0  0  0  0  0  0  0  0  0  0  0  0
   -4.3765    0.9510    4.3088 H   0  0  0  0  0  0  0  0  0  0  0  0
   -2.9528    0.5373    2.3759 H   0  0  0  0  0  0  0  0  0  0  0  0
   -7.7044    2.6546    4.1462 H   0  0  0  0  0  0  0  0  0  0  0  0
   -7.5691    0.9423    4.5824 H   0  0  0  0  0  0  0  0  0  0  0  0
   -6.4085    2.1371    5.2212 H   0  0  0  0  0  0  0  0  0  0  0  0
   -7.3202    2.3685   -0.5384 H   0  0  0  0  0  0  0  0  0  0  0  0
   -5.6945    2.6304   -1.1487 H   0  0  0  0  0  0  0  0  0  0  0  0
   -6.4165    0.9892   -1.1842 H   0  0  0  0  0  0  0  0  0  0  0  0
  1  2  1  0  0  0  0
  1 34  1  0  0  0  0
  1 35  1  0  0  0  0
  1 36  1  0  0  0  0
  2  3  1  0  0  0  0
  2 37  1  0  0  0  0
  2 38  1  0  0  0  0
  3  4  1  0  0  0  0
  4  5  2  0  0  0  0
  4  9  1  0  0  0  0
  5  6  1  0  0  0  0
  5 39  1  0  0  0  0
  6  7  2  0  0  0  0
  6 40  1  0  0  0  0
  7  8  1  0  0  0  0
  7 10  1  0  0  0  0
  8  9  2  0  0  0  0
  8 41  1  0  0  0  0
  9 42  1  0  0  0  0
 10 11  2  0  0  0  0
 10 12  2  0  0  0  0
 10 13  1  0  0  0  0
 13 14  2  0  0  0  0
 14 15  1  0  0  0  0
 14 24  1  0  0  0  0
 15 16  2  0  0  0  0
 15 43  1  0  0  0  0
 16 17  1  0  0  0  0
 16 25  1  0  0  0  0
 17 18  2  0  0  0  0
 17 19  1  0  0  0  0
 19 20  2  0  0  0  0
 19 24  1  0  0  0  0
 20 21  1  0  0  0  0
 20 44  1  0  0  0  0
 21 22  2  0  0  0  0
 21 45  1  0  0  0  0
 22 23  1  0  0  0  0
 22 46  1  0  0  0  0
 23 24  2  0  0  0  0
 23 47  1  0  0  0  0
 25 26  1  0  0  0  0
 25 48  1  0  0  0  0
 26 27  2  0  0  0  0
 26 31  1  0  0  0  0
 27 28  1  0  0  0  0
 27 33  1  0  0  0  0
 28 29  2  0  0  0  0
 28 49  1  0  0  0  0
 29 30  1  0  0  0  0
 29 32  1  0  0  0  0
 30 31  2  0  0  0  0
 30 50  1  0  0  0  0
 31 51  1  0  0  0  0
 32 52  1  0  0  0  0
 32 53  1  0  0  0  0
 32 54  1  0  0  0  0
 33 55  1  0  0  0  0
 33 56  1  0  0  0  0
 33 57  1  0  0  0  0
M  END
