
 OpenBabel10072620043D

 43 45  0  0  0  0  0  0  0  0999 V2000
   -4.7382   -2.9201    4.5133 C   0  0  0  0  0  0  0  0  0  0  0  0
   -4.4846   -2.2313    3.2045 C   0  0  0  0  0  0  0  0  0  0  0  0
   -5.5146   -2.0917    2.2638 C   0  0  0  0  0  0  0  0  0  0  0  0
   -5.2926   -1.4111    1.0668 C   0  0  0  0  0  0  0  0  0  0  0  0
   -4.0358   -0.8530    0.8165 C   0  0  0  0  0  0  0  0  0  0  0  0
   -2.9927   -1.0049    1.7336 C   0  0  0  0  0  0  0  0  0  0  0  0
   -3.2245   -1.6792    2.9320 C   0  0  0  0  0  0  0  0  0  0  0  0
   -3.7423    0.0119   -0.7135 S   0  0  0  0  0  0  0  0  0  0  0  0
   -2.3342   -0.1462   -1.0249 O   0  0  0  0  0  0  0  0  0  0  0  0
   -4.7486   -0.4220   -1.6593 O   0  0  0  0  0  0  0  0  0  0  0  0
   -4.0193    1.6518   -0.2949 N   0  0  0  0  0  0  0  0  0  0  0  0
   -2.9603    2.2882    0.5256 C   0  0  0  0  0  0  0  0  0  0  0  0
   -2.8439    3.7838    0.3077 C   0  0  0  0  0  0  0  0  0  0  0  0
   -2.8974    4.6743    1.3900 C   0  0  0  0  0  0  0  0  0  0  0  0
   -2.7401    6.0480    1.1864 C   0  0  0  0  0  0  0  0  0  0  0  0
   -2.5267    6.5377   -0.1021 C   0  0  0  0  0  0  0  0  0  0  0  0
   -2.4796    5.6678   -1.1879 C   0  0  0  0  0  0  0  0  0  0  0  0
   -2.6336    4.2948   -0.9844 C   0  0  0  0  0  0  0  0  0  0  0  0
   -2.3216    8.2286   -0.3492 Cl  0  0  0  0  0  0  0  0  0  0  0  0
   -5.3901    2.0009   -0.0108 C   0  0  0  0  0  0  0  0  0  0  0  0
   -5.9117    1.9824    1.2887 C   0  0  0  0  0  0  0  0  0  0  0  0
   -7.2669    2.2396    1.5054 C   0  0  0  0  0  0  0  0  0  0  0  0
   -8.1093    2.5107    0.4285 C   0  0  0  0  0  0  0  0  0  0  0  0
   -7.5983    2.5144   -0.8689 C   0  0  0  0  0  0  0  0  0  0  0  0
   -6.2448    2.2547   -1.0865 C   0  0  0  0  0  0  0  0  0  0  0  0
   -5.6059   -3.5847    4.4477 H   0  0  0  0  0  0  0  0  0  0  0  0
   -4.9257   -2.1785    5.2966 H   0  0  0  0  0  0  0  0  0  0  0  0
   -3.8777   -3.5338    4.7982 H   0  0  0  0  0  0  0  0  0  0  0  0
   -6.4978   -2.5166    2.4580 H   0  0  0  0  0  0  0  0  0  0  0  0
   -6.1002   -1.3146    0.3429 H   0  0  0  0  0  0  0  0  0  0  0  0
   -2.0022   -0.6081    1.5208 H   0  0  0  0  0  0  0  0  0  0  0  0
   -2.4132   -1.7815    3.6503 H   0  0  0  0  0  0  0  0  0  0  0  0
   -1.9752    1.8766    0.2799 H   0  0  0  0  0  0  0  0  0  0  0  0
   -3.1179    2.0721    1.5879 H   0  0  0  0  0  0  0  0  0  0  0  0
   -3.0613    4.3076    2.4015 H   0  0  0  0  0  0  0  0  0  0  0  0
   -2.7805    6.7283    2.0326 H   0  0  0  0  0  0  0  0  0  0  0  0
   -2.3190    6.0488   -2.1939 H   0  0  0  0  0  0  0  0  0  0  0  0
   -2.5917    3.6204   -1.8382 H   0  0  0  0  0  0  0  0  0  0  0  0
   -5.2865    1.7492    2.1448 H   0  0  0  0  0  0  0  0  0  0  0  0
   -7.6705    2.2175    2.5152 H   0  0  0  0  0  0  0  0  0  0  0  0
   -9.1640    2.7118    0.5966 H   0  0  0  0  0  0  0  0  0  0  0  0
   -8.2544    2.7086   -1.7135 H   0  0  0  0  0  0  0  0  0  0  0  0
   -5.8573    2.2417   -2.1030 H   0  0  0  0  0  0  0  0  0  0  0  0
  1  2  1  0  0  0  0
  1 26  1  0  0  0  0
  1 27  1  0  0  0  0
  1 28  1  0  0  0  0
  2  3  2  0  0  0  0
  2  7  1  0  0  0  0
  3  4  1  0  0  0  0
  3 29  1  0  0  0  0
  4  5  2  0  0  0  0
  4 30  1  0  0  0  0
  5  6  1  0  0  0  0
  5  8  1  0  0  0  0
  6  7  2  0  0  0  0
  6 31  1  0  0  0  0
  7 32  1  0  0  0  0
  8  9  2  0  0  0  0
  8 10  2  0  0  0  0
  8 11  1  0  0  0  0
 11 12  1  0  0  0  0
 11 20  1  0  0  0  0
 12 13  1  0  0  0  0
 12 33  1  0  0  0  0
 12 34  1  0  0  0  0
 13 14  2  0  0  0  0
 13 18  1  0  0  0  0
 14 15  1  0  0  0  0
 14 35  1  0  0  0  0
 15 16  2  0  0  0  0
 15 36  1  0  0  0  0
 16 17  1  0  0  0  0
 16 19  1  0  0  0  0
 17 18  2  0  0  0  0
 17 37  1  0  0  0  0
 18 38  1  0  0  0  0
 20 21  2  0  0  0  0
 20 25  1  0  0  0  0
 21 22  1  0  0  0  0
 21 39  1  0  0  0  0
 22 23  2  0  0  0  0
 22 40  1  0  0  0  0
 23 24  1  0  0  0  0
 23 41  1  0  0  0  0
 24 25  2  0  0  0  0
 24 42  1  0  0  0  0
 25 43  1  0  0  0  0
M  END
