
 OpenBabel10072620113D

 55 57  0  0  0  0  0  0  0  0999 V2000
    4.4872   -1.0526   -0.6783 C   0  0  0  0  0  0  0  0  0  0  0  0
    3.7911   -0.0223   -1.4479 N   0  0  0  0  0  0  0  0  0  0  0  0
    2.3895   -0.3060   -1.7598 C   0  0  0  0  0  0  0  0  0  0  0  0
    4.0616    1.3192   -1.1228 C   0  0  0  0  0  0  0  0  0  0  0  0
    3.6607    2.3540   -1.9842 C   0  0  0  0  0  0  0  0  0  0  0  0
    3.9595    3.6952   -1.7125 C   0  0  0  0  0  0  0  0  0  0  0  0
    4.6754    4.0412   -0.5666 C   0  0  0  0  0  0  0  0  0  0  0  0
    5.0954    3.0292    0.2919 C   0  0  0  0  0  0  0  0  0  0  0  0
    4.7862    1.6940    0.0195 C   0  0  0  0  0  0  0  0  0  0  0  0
    5.1665    5.4112   -0.3966 C   0  0  0  0  0  0  0  0  0  0  0  0
    4.9983    6.2585    0.6364 C   0  0  0  0  0  0  0  0  0  0  0  0
    4.1160    5.8862    1.8039 C   0  0  0  0  0  0  0  0  0  0  0  0
    4.3208    4.9096    2.5092 O   0  0  0  0  0  0  0  0  0  0  0  0
    3.1331    6.8470    1.9983 N   0  0  0  0  0  0  0  0  0  0  0  0
    2.2102    6.6896    2.9812 N   0  0  0  0  0  0  0  0  0  0  0  0
    1.3565    7.6343    3.2398 C   0  0  0  0  0  0  0  0  0  0  0  0
    1.1901    8.9555    2.6125 C   0  0  0  0  0  0  0  0  0  0  0  0
    1.2093    9.1511    1.2304 C   0  0  0  0  0  0  0  0  0  0  0  0
    1.1133   10.4455    0.7168 C   0  0  0  0  0  0  0  0  0  0  0  0
    0.9488   11.5237    1.5886 C   0  0  0  0  0  0  0  0  0  0  0  0
    0.8741   11.3258    2.9673 C   0  0  0  0  0  0  0  0  0  0  0  0
    0.9923   10.0347    3.4797 C   0  0  0  0  0  0  0  0  0  0  0  0
    0.8414   13.2741    0.8897 Br  0  0  0  0  0  0  0  0  0  0  0  0
    5.6165    7.5021    0.7279 N   0  0  0  0  0  0  0  0  0  0  0  0
    6.3163    8.1600   -0.2701 C   0  0  0  0  0  0  0  0  0  0  0  0
    6.2465    7.8814   -1.4630 O   0  0  0  0  0  0  0  0  0  0  0  0
    7.1675    9.3154    0.1465 C   0  0  0  0  0  0  0  0  0  0  0  0
    7.5949    9.5141    1.4657 C   0  0  0  0  0  0  0  0  0  0  0  0
    8.4062   10.6091    1.7779 C   0  0  0  0  0  0  0  0  0  0  0  0
    8.8133   11.4935    0.7797 C   0  0  0  0  0  0  0  0  0  0  0  0
    8.4090   11.2903   -0.5366 C   0  0  0  0  0  0  0  0  0  0  0  0
    7.5908   10.2059   -0.8518 C   0  0  0  0  0  0  0  0  0  0  0  0
    4.2450   -2.0557   -1.0421 H   0  0  0  0  0  0  0  0  0  0  0  0
    4.2218   -1.0293    0.3836 H   0  0  0  0  0  0  0  0  0  0  0  0
    5.5724   -0.9403   -0.7814 H   0  0  0  0  0  0  0  0  0  0  0  0
    2.2586   -1.3664   -1.9998 H   0  0  0  0  0  0  0  0  0  0  0  0
    2.0382    0.2480   -2.6360 H   0  0  0  0  0  0  0  0  0  0  0  0
    1.7425   -0.0673   -0.9093 H   0  0  0  0  0  0  0  0  0  0  0  0
    3.1429    2.1245   -2.9112 H   0  0  0  0  0  0  0  0  0  0  0  0
    3.6703    4.4536   -2.4347 H   0  0  0  0  0  0  0  0  0  0  0  0
    5.6787    3.2611    1.1796 H   0  0  0  0  0  0  0  0  0  0  0  0
    5.1400    0.9582    0.7342 H   0  0  0  0  0  0  0  0  0  0  0  0
    5.8047    5.6915   -1.2305 H   0  0  0  0  0  0  0  0  0  0  0  0
    3.1158    7.6576    1.3967 H   0  0  0  0  0  0  0  0  0  0  0  0
    0.6862    7.4526    4.0973 H   0  0  0  0  0  0  0  0  0  0  0  0
    1.2816    8.3111    0.5453 H   0  0  0  0  0  0  0  0  0  0  0  0
    1.1643   10.6041   -0.3588 H   0  0  0  0  0  0  0  0  0  0  0  0
    0.7354   12.1623    3.6491 H   0  0  0  0  0  0  0  0  0  0  0  0
    0.9473    9.8767    4.5547 H   0  0  0  0  0  0  0  0  0  0  0  0
    5.5598    7.9351    1.6421 H   0  0  0  0  0  0  0  0  0  0  0  0
    7.3451    8.8196    2.2618 H   0  0  0  0  0  0  0  0  0  0  0  0
    8.7361   10.7639    2.8019 H   0  0  0  0  0  0  0  0  0  0  0  0
    9.4566   12.3350    1.0257 H   0  0  0  0  0  0  0  0  0  0  0  0
    8.7352   11.9671   -1.3216 H   0  0  0  0  0  0  0  0  0  0  0  0
    7.2903   10.0499   -1.8867 H   0  0  0  0  0  0  0  0  0  0  0  0
  1  2  1  0  0  0  0
  1 33  1  0  0  0  0
  1 34  1  0  0  0  0
  1 35  1  0  0  0  0
  2  3  1  0  0  0  0
  2  4  1  0  0  0  0
  3 36  1  0  0  0  0
  3 37  1  0  0  0  0
  3 38  1  0  0  0  0
  4  5  2  0  0  0  0
  4  9  1  0  0  0  0
  5  6  1  0  0  0  0
  5 39  1  0  0  0  0
  6  7  2  0  0  0  0
  6 40  1  0  0  0  0
  7  8  1  0  0  0  0
  7 10  1  0  0  0  0
  8  9  2  0  0  0  0
  8 41  1  0  0  0  0
  9 42  1  0  0  0  0
 10 11  2  0  0  0  0
 10 43  1  0  0  0  0
 11 12  1  0  0  0  0
 11 24  1  0  0  0  0
 12 13  2  0  0  0  0
 12 14  1  0  0  0  0
 14 15  1  0  0  0  0
 14 44  1  0  0  0  0
 15 16  2  0  0  0  0
 16 17  1  0  0  0  0
 16 45  1  0  0  0  0
 17 18  2  0  0  0  0
 17 22  1  0  0  0  0
 18 19  1  0  0  0  0
 18 46  1  0  0  0  0
 19 20  2  0  0  0  0
 19 47  1  0  0  0  0
 20 21  1  0  0  0  0
 20 23  1  0  0  0  0
 21 22  2  0  0  0  0
 21 48  1  0  0  0  0
 22 49  1  0  0  0  0
 24 25  1  0  0  0  0
 24 50  1  0  0  0  0
 25 26  2  0  0  0  0
 25 27  1  0  0  0  0
 27 28  2  0  0  0  0
 27 32  1  0  0  0  0
 28 29  1  0  0  0  0
 28 51  1  0  0  0  0
 29 30  2  0  0  0  0
 29 52  1  0  0  0  0
 30 31  1  0  0  0  0
 30 53  1  0  0  0  0
 31 32  2  0  0  0  0
 31 54  1  0  0  0  0
 32 55  1  0  0  0  0
M  END
