
 OpenBabel10072616323D

 38 39  0  0  1  0  0  0  0  0999 V2000
    2.4165   -0.6254   -0.2091 C   0  0  0  0  0  0  0  0  0  0  0  0
    1.0097   -0.2381    0.2501 C   0  0  3  0  0  0  0  0  0  0  0  0
    0.7817    1.2717    0.0897 C   0  0  0  0  0  0  0  0  0  0  0  0
   -0.6410    1.6908    0.4614 C   0  0  0  0  0  0  0  0  0  0  0  0
   -1.7195    0.8643   -0.2446 C   0  0  3  0  0  0  0  0  0  0  0  0
   -1.4669   -0.6379   -0.0650 C   0  0  0  0  0  0  0  0  0  0  0  0
   -0.0580   -1.0507   -0.4935 C   0  0  0  0  0  0  0  0  0  0  0  0
   -1.7689    1.1663   -1.6831 N   0  0  0  0  0  0  0  0  0  0  0  0
   -2.7180    2.4190   -2.2664 S   0  0  0  0  0  0  0  0  0  0  0  0
   -2.6992    3.4935   -1.3006 O   0  0  0  0  0  0  0  0  0  0  0  0
   -2.3193    2.6167   -3.6408 O   0  0  0  0  0  0  0  0  0  0  0  0
   -4.3687    1.7550   -2.3114 C   0  0  0  0  0  0  0  0  0  0  0  0
   -4.5960    0.3763   -2.3999 C   0  0  0  0  0  0  0  0  0  0  0  0
   -5.9079   -0.1065   -2.4568 C   0  0  0  0  0  0  0  0  0  0  0  0
   -6.9794    0.7997   -2.4328 C   0  0  0  0  0  0  0  0  0  0  0  0
   -6.7488    2.1792   -2.3273 C   0  0  0  0  0  0  0  0  0  0  0  0
   -5.4389    2.6569   -2.2602 C   0  0  0  0  0  0  0  0  0  0  0  0
   -8.3593    0.3063   -2.5409 N   0  3  0  0  0  0  0  0  0  0  0  0
   -8.5415   -0.9174   -2.4608 O   0  0  0  0  0  0  0  0  0  0  0  0
   -9.2578    1.1415   -2.7076 O   0  5  0  0  0  0  0  0  0  0  0  0
    3.1729   -0.0210    0.3056 H   0  0  0  0  0  0  0  0  0  0  0  0
    2.5406   -0.4786   -1.2882 H   0  0  0  0  0  0  0  0  0  0  0  0
    2.6202   -1.6782    0.0192 H   0  0  0  0  0  0  0  0  0  0  0  0
    0.9368   -0.4821    1.3181 H   0  0  0  0  0  0  0  0  0  0  0  0
    0.9990    1.5814   -0.9406 H   0  0  0  0  0  0  0  0  0  0  0  0
    1.4852    1.8118    0.7358 H   0  0  0  0  0  0  0  0  0  0  0  0
   -0.7606    2.7605    0.2531 H   0  0  0  0  0  0  0  0  0  0  0  0
   -0.7654    1.5680    1.5464 H   0  0  0  0  0  0  0  0  0  0  0  0
   -2.6939    1.0970    0.1980 H   0  0  0  0  0  0  0  0  0  0  0  0
   -2.2061   -1.2217   -0.6274 H   0  0  0  0  0  0  0  0  0  0  0  0
   -1.5979   -0.8950    0.9944 H   0  0  0  0  0  0  0  0  0  0  0  0
    0.0533   -0.9271   -1.5778 H   0  0  0  0  0  0  0  0  0  0  0  0
    0.0790   -2.1192   -0.2911 H   0  0  0  0  0  0  0  0  0  0  0  0
   -0.9608    0.9659   -2.2729 H   0  0  0  0  0  0  0  0  0  0  0  0
   -3.7667   -0.3249   -2.4489 H   0  0  0  0  0  0  0  0  0  0  0  0
   -6.0780   -1.1794   -2.5330 H   0  0  0  0  0  0  0  0  0  0  0  0
   -7.5728    2.8895   -2.3049 H   0  0  0  0  0  0  0  0  0  0  0  0
   -5.2544    3.7282   -2.1906 H   0  0  0  0  0  0  0  0  0  0  0  0
  1  2  1  0  0  0  0
  1 21  1  0  0  0  0
  1 22  1  0  0  0  0
  1 23  1  0  0  0  0
  2  3  1  0  0  0  0
  2  7  1  0  0  0  0
  2 24  1  0  0  0  0
  3  4  1  0  0  0  0
  3 25  1  0  0  0  0
  3 26  1  0  0  0  0
  4  5  1  0  0  0  0
  4 27  1  0  0  0  0
  4 28  1  0  0  0  0
  5  6  1  0  0  0  0
  5  8  1  0  0  0  0
  5 29  1  0  0  0  0
  6  7  1  0  0  0  0
  6 30  1  0  0  0  0
  6 31  1  0  0  0  0
  7 32  1  0  0  0  0
  7 33  1  0  0  0  0
  8  9  1  0  0  0  0
  8 34  1  0  0  0  0
  9 10  2  0  0  0  0
  9 11  2  0  0  0  0
  9 12  1  0  0  0  0
 12 13  2  0  0  0  0
 12 17  1  0  0  0  0
 13 14  1  0  0  0  0
 13 35  1  0  0  0  0
 14 15  2  0  0  0  0
 14 36  1  0  0  0  0
 15 16  1  0  0  0  0
 15 18  1  0  0  0  0
 16 17  2  0  0  0  0
 16 37  1  0  0  0  0
 17 38  1  0  0  0  0
 18 19  2  0  0  0  0
 18 20  1  0  0  0  0
M  CHG  2  18   1  20  -1
M  END
