
 OpenBabel10072619593D

 49 51  0  0  1  0  0  0  0  0999 V2000
    0.5908    0.0780   -0.2990 C   0  0  0  0  0  0  0  0  0  0  0  0
    2.1107    0.1427   -0.0251 C   0  0  0  0  0  0  0  0  0  0  0  0
    2.9073   -1.0606   -0.6026 C   0  0  3  0  0  0  0  0  0  0  0  0
    2.6794   -0.9424   -2.1241 C   0  0  0  0  0  0  0  0  0  0  0  0
    2.6665    0.5792   -2.3486 C   0  0  0  0  0  0  0  0  0  0  0  0
    2.8971    1.1492   -0.9161 C   0  0  3  0  0  0  0  0  0  0  0  0
    4.4038    0.8528   -0.5953 C   0  0  3  0  0  0  0  0  0  0  0  0
    4.4007   -0.6931   -0.3584 C   0  0  3  0  0  0  0  0  0  0  0  0
    4.8232   -1.0578    0.9631 O   0  0  0  0  0  0  0  0  0  0  0  0
    5.0206   -2.3832    1.1608 C   0  0  0  0  0  0  0  0  0  0  0  0
    4.9643   -3.2606    0.3152 O   0  0  0  0  0  0  0  0  0  0  0  0
    5.2538   -2.6000    2.6047 C   0  0  0  0  0  0  0  0  0  0  0  0
    5.2437   -3.8331    3.1249 C   0  0  0  0  0  0  0  0  0  0  0  0
    4.8799    1.6190    0.5065 O   0  0  0  0  0  0  0  0  0  0  0  0
    6.3067    1.6835    0.5381 C   0  0  0  0  0  0  0  0  0  0  0  0
    6.7735    2.2585    1.8508 C   0  0  0  0  0  0  0  0  0  0  0  0
    6.2497    1.7892    3.0635 C   0  0  0  0  0  0  0  0  0  0  0  0
    6.7184    2.2847    4.2809 C   0  0  0  0  0  0  0  0  0  0  0  0
    7.7228    3.2503    4.2993 C   0  0  0  0  0  0  0  0  0  0  0  0
    8.2618    3.7168    3.1019 C   0  0  0  0  0  0  0  0  0  0  0  0
    7.7916    3.2222    1.8836 C   0  0  0  0  0  0  0  0  0  0  0  0
    2.5032    2.6105   -0.7900 C   0  0  0  0  0  0  0  0  0  0  0  0
    2.2378    0.3373    1.4970 C   0  0  0  0  0  0  0  0  0  0  0  0
    0.3203   -0.0494   -1.3489 H   0  0  0  0  0  0  0  0  0  0  0  0
    0.0998    0.9973    0.0409 H   0  0  0  0  0  0  0  0  0  0  0  0
    0.1400   -0.7593    0.2464 H   0  0  0  0  0  0  0  0  0  0  0  0
    2.6128   -2.0293   -0.1933 H   0  0  0  0  0  0  0  0  0  0  0  0
    1.7265   -1.3912   -2.4221 H   0  0  0  0  0  0  0  0  0  0  0  0
    3.4671   -1.4349   -2.7051 H   0  0  0  0  0  0  0  0  0  0  0  0
    1.7142    0.9040   -2.7808 H   0  0  0  0  0  0  0  0  0  0  0  0
    3.4524    0.8808   -3.0496 H   0  0  0  0  0  0  0  0  0  0  0  0
    5.0067    1.1020   -1.4798 H   0  0  0  0  0  0  0  0  0  0  0  0
    5.0698   -1.1660   -1.0892 H   0  0  0  0  0  0  0  0  0  0  0  0
    5.4098   -1.7238    3.2233 H   0  0  0  0  0  0  0  0  0  0  0  0
    5.0741   -4.7157    2.5121 H   0  0  0  0  0  0  0  0  0  0  0  0
    5.3980   -3.9855    4.1888 H   0  0  0  0  0  0  0  0  0  0  0  0
    6.6380    2.3156   -0.2944 H   0  0  0  0  0  0  0  0  0  0  0  0
    6.7499    0.6884    0.4162 H   0  0  0  0  0  0  0  0  0  0  0  0
    5.4643    1.0368    3.0575 H   0  0  0  0  0  0  0  0  0  0  0  0
    6.2991    1.9176    5.2136 H   0  0  0  0  0  0  0  0  0  0  0  0
    8.0867    3.6382    5.2467 H   0  0  0  0  0  0  0  0  0  0  0  0
    9.0497    4.4653    3.1159 H   0  0  0  0  0  0  0  0  0  0  0  0
    8.2252    3.5964    0.9593 H   0  0  0  0  0  0  0  0  0  0  0  0
    1.4485    2.7621   -1.0413 H   0  0  0  0  0  0  0  0  0  0  0  0
    3.0954    3.2323   -1.4695 H   0  0  0  0  0  0  0  0  0  0  0  0
    2.6565    2.9854    0.2270 H   0  0  0  0  0  0  0  0  0  0  0  0
    1.8217   -0.5276    2.0273 H   0  0  0  0  0  0  0  0  0  0  0  0
    1.6784    1.2222    1.8210 H   0  0  0  0  0  0  0  0  0  0  0  0
    3.2524    0.4707    1.8662 H   0  0  0  0  0  0  0  0  0  0  0  0
  1  2  1  0  0  0  0
  1 24  1  0  0  0  0
  1 25  1  0  0  0  0
  1 26  1  0  0  0  0
  2  3  1  0  0  0  0
  2  6  1  0  0  0  0
  2 23  1  0  0  0  0
  3  4  1  0  0  0  0
  3  8  1  0  0  0  0
  3 27  1  0  0  0  0
  4  5  1  0  0  0  0
  4 28  1  0  0  0  0
  4 29  1  0  0  0  0
  5  6  1  0  0  0  0
  5 30  1  0  0  0  0
  5 31  1  0  0  0  0
  6  7  1  0  0  0  0
  6 22  1  0  0  0  0
  7  8  1  0  0  0  0
  7 14  1  0  0  0  0
  7 32  1  0  0  0  0
  8  9  1  0  0  0  0
  8 33  1  0  0  0  0
  9 10  1  0  0  0  0
 10 11  2  0  0  0  0
 10 12  1  0  0  0  0
 12 13  2  0  0  0  0
 12 34  1  0  0  0  0
 13 35  1  0  0  0  0
 13 36  1  0  0  0  0
 14 15  1  0  0  0  0
 15 16  1  0  0  0  0
 15 37  1  0  0  0  0
 15 38  1  0  0  0  0
 16 17  2  0  0  0  0
 16 21  1  0  0  0  0
 17 18  1  0  0  0  0
 17 39  1  0  0  0  0
 18 19  2  0  0  0  0
 18 40  1  0  0  0  0
 19 20  1  0  0  0  0
 19 41  1  0  0  0  0
 20 21  2  0  0  0  0
 20 42  1  0  0  0  0
 21 43  1  0  0  0  0
 22 44  1  0  0  0  0
 22 45  1  0  0  0  0
 22 46  1  0  0  0  0
 23 47  1  0  0  0  0
 23 48  1  0  0  0  0
 23 49  1  0  0  0  0
M  END
