
 OpenBabel10072620193D

 33 33  0  0  0  0  0  0  0  0999 V2000
    0.1262   -1.1847   -0.9184 C   0  0  0  0  0  0  0  0  0  0  0  0
   -1.1079   -1.7905   -0.6611 C   0  0  0  0  0  0  0  0  0  0  0  0
   -2.2712   -1.0219   -0.7484 C   0  0  0  0  0  0  0  0  0  0  0  0
   -2.1929    0.3361   -1.0661 C   0  0  0  0  0  0  0  0  0  0  0  0
   -0.9639    0.9466   -1.2938 C   0  0  0  0  0  0  0  0  0  0  0  0
    0.1930    0.1776   -1.2160 C   0  0  0  0  0  0  0  0  0  0  0  0
    1.7246    0.9055   -1.5092 Cl  0  0  0  0  0  0  0  0  0  0  0  0
   -3.6403    1.2587   -1.2100 Cl  0  0  0  0  0  0  0  0  0  0  0  0
   -1.1114   -3.1811   -0.4210 N   0  0  0  0  0  0  0  0  0  0  0  0
   -2.0694   -3.9813    0.1924 C   0  0  0  0  0  0  0  0  0  0  0  0
   -3.1212   -3.4855    1.3923 S   0  0  0  0  0  0  0  0  0  0  0  0
   -1.9463   -5.2709   -0.2908 N   0  0  0  0  0  0  0  0  0  0  0  0
   -2.7777   -6.5039   -0.0658 C   0  0  0  0  0  0  0  0  0  0  0  0
   -4.2387   -6.3053   -0.5509 C   0  0  0  0  0  0  0  0  0  0  0  0
   -4.2773   -5.9575   -1.9369 O   0  0  0  0  0  0  0  0  0  0  0  0
   -2.1470   -7.6350   -0.9391 C   0  0  0  0  0  0  0  0  0  0  0  0
   -0.8413   -7.9929   -0.4741 O   0  0  0  0  0  0  0  0  0  0  0  0
   -2.7694   -6.9196    1.4293 C   0  0  0  0  0  0  0  0  0  0  0  0
   -3.0659   -8.3072    1.5969 O   0  0  0  0  0  0  0  0  0  0  0  0
    1.0448   -1.7647   -0.8730 H   0  0  0  0  0  0  0  0  0  0  0  0
   -3.2519   -1.4692   -0.6231 H   0  0  0  0  0  0  0  0  0  0  0  0
   -0.9108    2.0012   -1.5478 H   0  0  0  0  0  0  0  0  0  0  0  0
   -0.2367   -3.6606   -0.6020 H   0  0  0  0  0  0  0  0  0  0  0  0
   -1.4002   -5.3319   -1.1418 H   0  0  0  0  0  0  0  0  0  0  0  0
   -4.7531   -5.5177    0.0057 H   0  0  0  0  0  0  0  0  0  0  0  0
   -4.8193   -7.2257   -0.4245 H   0  0  0  0  0  0  0  0  0  0  0  0
   -5.1853   -5.6633   -2.1297 H   0  0  0  0  0  0  0  0  0  0  0  0
   -2.0319   -7.3032   -1.9781 H   0  0  0  0  0  0  0  0  0  0  0  0
   -2.7674   -8.5390   -0.9523 H   0  0  0  0  0  0  0  0  0  0  0  0
   -0.9884   -8.5139    0.3383 H   0  0  0  0  0  0  0  0  0  0  0  0
   -3.5079   -6.3587    2.0094 H   0  0  0  0  0  0  0  0  0  0  0  0
   -1.7830   -6.7408    1.8718 H   0  0  0  0  0  0  0  0  0  0  0  0
   -3.1070   -8.4711    2.5570 H   0  0  0  0  0  0  0  0  0  0  0  0
  1  2  2  0  0  0  0
  1  6  1  0  0  0  0
  1 20  1  0  0  0  0
  2  3  1  0  0  0  0
  2  9  1  0  0  0  0
  3  4  2  0  0  0  0
  3 21  1  0  0  0  0
  4  5  1  0  0  0  0
  4  8  1  0  0  0  0
  5  6  2  0  0  0  0
  5 22  1  0  0  0  0
  6  7  1  0  0  0  0
  9 10  1  0  0  0  0
  9 23  1  0  0  0  0
 10 11  2  0  0  0  0
 10 12  1  0  0  0  0
 12 13  1  0  0  0  0
 12 24  1  0  0  0  0
 13 14  1  0  0  0  0
 13 16  1  0  0  0  0
 13 18  1  0  0  0  0
 14 15  1  0  0  0  0
 14 25  1  0  0  0  0
 14 26  1  0  0  0  0
 15 27  1  0  0  0  0
 16 17  1  0  0  0  0
 16 28  1  0  0  0  0
 16 29  1  0  0  0  0
 17 30  1  0  0  0  0
 18 19  1  0  0  0  0
 18 31  1  0  0  0  0
 18 32  1  0  0  0  0
 19 33  1  0  0  0  0
M  END
