
 OpenBabel10072620063D

 36 37  0  0  0  0  0  0  0  0999 V2000
   -0.5805   -1.3836   -2.7755 C   0  0  0  0  0  0  0  0  0  0  0  0
   -0.4116   -0.6550   -1.4751 C   0  0  0  0  0  0  0  0  0  0  0  0
   -1.1448    0.5062   -1.2142 C   0  0  0  0  0  0  0  0  0  0  0  0
   -0.9546    1.2236   -0.0195 C   0  0  0  0  0  0  0  0  0  0  0  0
   -0.0277    0.7798    0.9428 C   0  0  0  0  0  0  0  0  0  0  0  0
    0.6958   -0.3927    0.6679 C   0  0  0  0  0  0  0  0  0  0  0  0
    0.5183   -1.0910   -0.5299 C   0  0  0  0  0  0  0  0  0  0  0  0
    0.2146    1.4694    2.2555 C   0  0  0  0  0  0  0  0  0  0  0  0
   -1.9080    2.7261    0.1900 S   0  0  0  0  0  0  0  0  0  0  0  0
   -2.9408    2.7538   -0.8252 O   0  0  0  0  0  0  0  0  0  0  0  0
   -2.2409    2.8705    1.5898 O   0  0  0  0  0  0  0  0  0  0  0  0
   -0.7740    3.9391   -0.1670 N   0  0  0  0  0  0  0  0  0  0  0  0
   -0.0488    3.8362   -1.3853 C   0  0  0  0  0  0  0  0  0  0  0  0
    1.2867    3.4318   -1.3496 C   0  0  0  0  0  0  0  0  0  0  0  0
    2.0057    3.2115   -2.5407 C   0  0  0  0  0  0  0  0  0  0  0  0
    1.3555    3.4194   -3.7625 C   0  0  0  0  0  0  0  0  0  0  0  0
    0.0198    3.8355   -3.7946 C   0  0  0  0  0  0  0  0  0  0  0  0
   -0.6833    4.0354   -2.6059 C   0  0  0  0  0  0  0  0  0  0  0  0
    2.1488    3.1700   -5.2738 Cl  0  0  0  0  0  0  0  0  0  0  0  0
    3.4355    2.7481   -2.4739 C   0  0  0  0  0  0  0  0  0  0  0  0
    3.8846    2.6029   -1.1921 F   0  0  0  0  0  0  0  0  0  0  0  0
    3.6365    1.5376   -3.0621 F   0  0  0  0  0  0  0  0  0  0  0  0
    4.3037    3.6170   -3.0591 F   0  0  0  0  0  0  0  0  0  0  0  0
   -1.6070   -1.2897   -3.1450 H   0  0  0  0  0  0  0  0  0  0  0  0
   -0.3758   -2.4525   -2.6552 H   0  0  0  0  0  0  0  0  0  0  0  0
    0.1030   -0.9743   -3.5258 H   0  0  0  0  0  0  0  0  0  0  0  0
   -1.8613    0.8589   -1.9551 H   0  0  0  0  0  0  0  0  0  0  0  0
    1.4151   -0.7771    1.3899 H   0  0  0  0  0  0  0  0  0  0  0  0
    1.1086   -1.9868   -0.7136 H   0  0  0  0  0  0  0  0  0  0  0  0
   -0.6197    1.2897    2.9398 H   0  0  0  0  0  0  0  0  0  0  0  0
    0.3634    2.5437    2.1183 H   0  0  0  0  0  0  0  0  0  0  0  0
    1.1242    1.0943    2.7383 H   0  0  0  0  0  0  0  0  0  0  0  0
   -0.2707    4.2332    0.6680 H   0  0  0  0  0  0  0  0  0  0  0  0
    1.7705    3.2560   -0.3908 H   0  0  0  0  0  0  0  0  0  0  0  0
   -0.4853    3.9966   -4.7446 H   0  0  0  0  0  0  0  0  0  0  0  0
   -1.7276    4.3395   -2.6435 H   0  0  0  0  0  0  0  0  0  0  0  0
  1  2  1  0  0  0  0
  1 24  1  0  0  0  0
  1 25  1  0  0  0  0
  1 26  1  0  0  0  0
  2  3  2  0  0  0  0
  2  7  1  0  0  0  0
  3  4  1  0  0  0  0
  3 27  1  0  0  0  0
  4  5  2  0  0  0  0
  4  9  1  0  0  0  0
  5  6  1  0  0  0  0
  5  8  1  0  0  0  0
  6  7  2  0  0  0  0
  6 28  1  0  0  0  0
  7 29  1  0  0  0  0
  8 30  1  0  0  0  0
  8 31  1  0  0  0  0
  8 32  1  0  0  0  0
  9 10  2  0  0  0  0
  9 11  2  0  0  0  0
  9 12  1  0  0  0  0
 12 13  1  0  0  0  0
 12 33  1  0  0  0  0
 13 14  2  0  0  0  0
 13 18  1  0  0  0  0
 14 15  1  0  0  0  0
 14 34  1  0  0  0  0
 15 16  2  0  0  0  0
 15 20  1  0  0  0  0
 16 17  1  0  0  0  0
 16 19  1  0  0  0  0
 17 18  2  0  0  0  0
 17 35  1  0  0  0  0
 18 36  1  0  0  0  0
 20 21  1  0  0  0  0
 20 22  1  0  0  0  0
 20 23  1  0  0  0  0
M  END
