
 OpenBabel10072620193D

 49 51  0  0  0  0  0  0  0  0999 V2000
   -1.0895   -1.2505    5.6073 C   0  0  0  0  0  0  0  0  0  0  0  0
   -2.2812   -1.0195    4.7263 C   0  0  0  0  0  0  0  0  0  0  0  0
   -2.5541    0.2503    4.2088 C   0  0  0  0  0  0  0  0  0  0  0  0
   -3.6815    0.4626    3.4111 C   0  0  0  0  0  0  0  0  0  0  0  0
   -4.5598   -0.5902    3.1161 C   0  0  0  0  0  0  0  0  0  0  0  0
   -4.2953   -1.8555    3.6543 C   0  0  0  0  0  0  0  0  0  0  0  0
   -3.1673   -2.0673    4.4517 C   0  0  0  0  0  0  0  0  0  0  0  0
   -5.7983   -0.3576    2.2848 C   0  0  0  0  0  0  0  0  0  0  0  0
   -5.4546    0.4412    1.1458 O   0  0  0  0  0  0  0  0  0  0  0  0
   -6.6004    0.5702    0.3531 N   0  0  0  0  0  0  0  0  0  0  0  0
   -7.2021    1.8079    0.3474 C   0  0  0  0  0  0  0  0  0  0  0  0
   -7.7137    2.4489   -0.7099 C   0  0  0  0  0  0  0  0  0  0  0  0
   -8.2865    3.7953   -0.6111 C   0  0  0  0  0  0  0  0  0  0  0  0
   -7.9776    4.7940   -1.5251 C   0  0  0  0  0  0  0  0  0  0  0  0
   -8.5506    6.0077   -1.3993 N   0  0  0  0  0  0  0  0  0  0  0  0
   -9.4200    6.2198   -0.3767 N   0  0  0  0  0  0  0  0  0  0  0  0
   -9.6879    5.2183    0.4881 C   0  0  0  0  0  0  0  0  0  0  0  0
   -9.1423    3.9959    0.4156 N   0  0  0  0  0  0  0  0  0  0  0  0
  -10.8571    5.5067    1.7855 S   0  0  0  0  0  0  0  0  0  0  0  0
  -12.0752    6.4631    0.8370 C   0  0  0  0  0  0  0  0  0  0  0  0
  -13.3483    6.6532    1.6245 C   0  0  0  0  0  0  0  0  0  0  0  0
  -13.5088    7.7642    2.4659 C   0  0  0  0  0  0  0  0  0  0  0  0
  -14.6771    7.9220    3.2142 C   0  0  0  0  0  0  0  0  0  0  0  0
  -15.6882    6.9678    3.1279 C   0  0  0  0  0  0  0  0  0  0  0  0
  -15.5424    5.8570    2.3006 C   0  0  0  0  0  0  0  0  0  0  0  0
  -14.3745    5.6988    1.5528 C   0  0  0  0  0  0  0  0  0  0  0  0
  -17.1241    7.1574    4.0557 Cl  0  0  0  0  0  0  0  0  0  0  0  0
   -7.0103    4.6129   -2.6496 C   0  0  0  0  0  0  0  0  0  0  0  0
   -0.3657   -0.4330    5.5229 H   0  0  0  0  0  0  0  0  0  0  0  0
   -0.5742   -2.1739    5.3228 H   0  0  0  0  0  0  0  0  0  0  0  0
   -1.4061   -1.3241    6.6522 H   0  0  0  0  0  0  0  0  0  0  0  0
   -1.8933    1.0866    4.4242 H   0  0  0  0  0  0  0  0  0  0  0  0
   -3.8716    1.4590    3.0162 H   0  0  0  0  0  0  0  0  0  0  0  0
   -4.9676   -2.6877    3.4576 H   0  0  0  0  0  0  0  0  0  0  0  0
   -2.9866   -3.0579    4.8623 H   0  0  0  0  0  0  0  0  0  0  0  0
   -6.5481    0.1610    2.8946 H   0  0  0  0  0  0  0  0  0  0  0  0
   -6.2139   -1.3124    1.9404 H   0  0  0  0  0  0  0  0  0  0  0  0
   -6.4435    0.1930   -0.5821 H   0  0  0  0  0  0  0  0  0  0  0  0
   -7.2029    2.2697    1.3342 H   0  0  0  0  0  0  0  0  0  0  0  0
   -7.6790    2.0010   -1.6966 H   0  0  0  0  0  0  0  0  0  0  0  0
  -12.3057    5.9464   -0.1022 H   0  0  0  0  0  0  0  0  0  0  0  0
  -11.6593    7.4407    0.5686 H   0  0  0  0  0  0  0  0  0  0  0  0
  -12.7201    8.5093    2.5482 H   0  0  0  0  0  0  0  0  0  0  0  0
  -14.7877    8.7852    3.8650 H   0  0  0  0  0  0  0  0  0  0  0  0
  -16.3278    5.1090    2.2387 H   0  0  0  0  0  0  0  0  0  0  0  0
  -14.2660    4.8211    0.9190 H   0  0  0  0  0  0  0  0  0  0  0  0
   -7.3898    3.8789   -3.3667 H   0  0  0  0  0  0  0  0  0  0  0  0
   -6.0378    4.2808   -2.2723 H   0  0  0  0  0  0  0  0  0  0  0  0
   -6.8550    5.5566   -3.1831 H   0  0  0  0  0  0  0  0  0  0  0  0
  1  2  1  0  0  0  0
  1 29  1  0  0  0  0
  1 30  1  0  0  0  0
  1 31  1  0  0  0  0
  2  3  2  0  0  0  0
  2  7  1  0  0  0  0
  3  4  1  0  0  0  0
  3 32  1  0  0  0  0
  4  5  2  0  0  0  0
  4 33  1  0  0  0  0
  5  6  1  0  0  0  0
  5  8  1  0  0  0  0
  6  7  2  0  0  0  0
  6 34  1  0  0  0  0
  7 35  1  0  0  0  0
  8  9  1  0  0  0  0
  8 36  1  0  0  0  0
  8 37  1  0  0  0  0
  9 10  1  0  0  0  0
 10 11  1  0  0  0  0
 10 38  1  0  0  0  0
 11 12  2  0  0  0  0
 11 39  1  0  0  0  0
 12 13  1  0  0  0  0
 12 40  1  0  0  0  0
 13 14  2  0  0  0  0
 13 18  1  0  0  0  0
 14 15  1  0  0  0  0
 14 28  1  0  0  0  0
 15 16  2  0  0  0  0
 16 17  1  0  0  0  0
 17 18  2  0  0  0  0
 17 19  1  0  0  0  0
 19 20  1  0  0  0  0
 20 21  1  0  0  0  0
 20 41  1  0  0  0  0
 20 42  1  0  0  0  0
 21 22  2  0  0  0  0
 21 26  1  0  0  0  0
 22 23  1  0  0  0  0
 22 43  1  0  0  0  0
 23 24  2  0  0  0  0
 23 44  1  0  0  0  0
 24 25  1  0  0  0  0
 24 27  1  0  0  0  0
 25 26  2  0  0  0  0
 25 45  1  0  0  0  0
 26 46  1  0  0  0  0
 28 47  1  0  0  0  0
 28 48  1  0  0  0  0
 28 49  1  0  0  0  0
M  END
