
 OpenBabel10072619523D

 32 33  0  0  0  0  0  0  0  0999 V2000
    0.0255    0.7821   -0.5526 C   0  0  0  0  0  0  0  0  0  0  0  0
   -0.9929   -0.1729   -0.4286 C   0  0  0  0  0  0  0  0  0  0  0  0
   -0.7165   -1.4232    0.1196 C   0  0  0  0  0  0  0  0  0  0  0  0
    0.5791   -1.6935    0.5640 C   0  0  0  0  0  0  0  0  0  0  0  0
    1.5956   -0.7403    0.4375 C   0  0  0  0  0  0  0  0  0  0  0  0
    1.3312    0.5032   -0.1314 C   0  0  0  0  0  0  0  0  0  0  0  0
    2.2993    1.5142   -0.2976 N   0  0  0  0  0  0  0  0  0  0  0  0
    3.6657    1.4151   -0.0837 C   0  0  0  0  0  0  0  0  0  0  0  0
    4.2699    0.4054    0.2528 O   0  0  0  0  0  0  0  0  0  0  0  0
    4.2623    2.6555   -0.2592 N   0  0  0  0  0  0  0  0  0  0  0  0
    5.6511    2.8700   -0.3985 C   0  0  0  0  0  0  0  0  0  0  0  0
    6.5327    1.9369   -0.9682 C   0  0  0  0  0  0  0  0  0  0  0  0
    7.8896    2.2158   -1.1017 C   0  0  0  0  0  0  0  0  0  0  0  0
    8.3702    3.4458   -0.6804 C   0  0  0  0  0  0  0  0  0  0  0  0
    7.5175    4.3972   -0.1317 C   0  0  0  0  0  0  0  0  0  0  0  0
    6.1559    4.1138    0.0040 C   0  0  0  0  0  0  0  0  0  0  0  0
    9.6714    3.7300   -0.8188 F   0  0  0  0  0  0  0  0  0  0  0  0
    6.0869    0.7843   -1.4874 F   0  0  0  0  0  0  0  0  0  0  0  0
   -1.5972   -2.4531    0.2821 O   0  0  0  0  0  0  0  0  0  0  0  0
   -2.8755   -2.3202   -0.3148 C   0  0  0  0  0  0  0  0  0  0  0  0
   -2.7774   -2.0714   -1.6390 F   0  0  0  0  0  0  0  0  0  0  0  0
   -3.5545   -3.4780   -0.1565 F   0  0  0  0  0  0  0  0  0  0  0  0
   -3.5859   -1.3353    0.2767 F   0  0  0  0  0  0  0  0  0  0  0  0
   -0.2226    1.7442   -0.9922 H   0  0  0  0  0  0  0  0  0  0  0  0
   -1.9857    0.1014   -0.7752 H   0  0  0  0  0  0  0  0  0  0  0  0
    0.8141   -2.6603    1.0039 H   0  0  0  0  0  0  0  0  0  0  0  0
    2.5857   -1.0062    0.7941 H   0  0  0  0  0  0  0  0  0  0  0  0
    1.9985    2.3514   -0.7747 H   0  0  0  0  0  0  0  0  0  0  0  0
    3.7100    3.4312    0.0759 H   0  0  0  0  0  0  0  0  0  0  0  0
    8.5543    1.4878   -1.5513 H   0  0  0  0  0  0  0  0  0  0  0  0
    7.9182    5.3560    0.1834 H   0  0  0  0  0  0  0  0  0  0  0  0
    5.5061    4.8675    0.4407 H   0  0  0  0  0  0  0  0  0  0  0  0
  1  2  2  0  0  0  0
  1  6  1  0  0  0  0
  1 24  1  0  0  0  0
  2  3  1  0  0  0  0
  2 25  1  0  0  0  0
  3  4  2  0  0  0  0
  3 19  1  0  0  0  0
  4  5  1  0  0  0  0
  4 26  1  0  0  0  0
  5  6  2  0  0  0  0
  5 27  1  0  0  0  0
  6  7  1  0  0  0  0
  7  8  1  0  0  0  0
  7 28  1  0  0  0  0
  8  9  2  0  0  0  0
  8 10  1  0  0  0  0
 10 11  1  0  0  0  0
 10 29  1  0  0  0  0
 11 12  2  0  0  0  0
 11 16  1  0  0  0  0
 12 13  1  0  0  0  0
 12 18  1  0  0  0  0
 13 14  2  0  0  0  0
 13 30  1  0  0  0  0
 14 15  1  0  0  0  0
 14 17  1  0  0  0  0
 15 16  2  0  0  0  0
 15 31  1  0  0  0  0
 16 32  1  0  0  0  0
 19 20  1  0  0  0  0
 20 21  1  0  0  0  0
 20 22  1  0  0  0  0
 20 23  1  0  0  0  0
M  END
