
 OpenBabel10072620203D

 44 45  0  0  0  0  0  0  0  0999 V2000
    1.3133    3.0718    0.7339 C   0  0  0  0  0  0  0  0  0  0  0  0
    2.6792    2.7377    0.4060 N   0  0  0  0  0  0  0  0  0  0  0  0
    3.2341    1.4876    0.3429 C   0  0  0  0  0  0  0  0  0  0  0  0
    2.4232    0.0355    0.4577 S   0  0  0  0  0  0  0  0  0  0  0  0
    4.5994    1.5000    0.1809 N   0  0  0  0  0  0  0  0  0  0  0  0
    5.3260    2.6551    0.0696 N   0  0  0  0  0  0  0  0  0  0  0  0
    6.6321    2.5463    0.0620 C   0  0  0  0  0  0  0  0  0  0  0  0
    7.4142    3.8491   -0.0997 C   0  0  0  0  0  0  0  0  0  0  0  0
    8.4822    3.7895   -0.8457 N   0  0  0  0  0  0  0  0  0  0  0  0
    9.2813    4.8957   -0.9249 N   0  0  0  0  0  0  0  0  0  0  0  0
   10.4310    4.8980   -1.6776 C   0  0  0  0  0  0  0  0  0  0  0  0
   10.9649    3.6618   -2.6714 S   0  0  0  0  0  0  0  0  0  0  0  0
   11.1935    6.0304   -1.6183 N   0  0  0  0  0  0  0  0  0  0  0  0
   10.9175    7.2525   -0.9019 C   0  0  0  0  0  0  0  0  0  0  0  0
    6.9269    5.0621    0.6139 C   0  0  0  0  0  0  0  0  0  0  0  0
    5.6724    5.5970    0.3500 C   0  0  0  0  0  0  0  0  0  0  0  0
    5.2992    6.7676    1.0062 C   0  0  0  0  0  0  0  0  0  0  0  0
    6.1910    7.3680    1.8875 C   0  0  0  0  0  0  0  0  0  0  0  0
    7.4371    6.7873    2.0607 C   0  0  0  0  0  0  0  0  0  0  0  0
    7.8396    5.6615    1.4281 N   0  0  0  0  0  0  0  0  0  0  0  0
    7.4311    1.2728    0.2170 C   0  0  0  0  0  0  0  0  0  0  0  0
    8.7259    1.2686    0.7249 C   0  0  0  0  0  0  0  0  0  0  0  0
    9.3893    0.0494    0.8597 C   0  0  0  0  0  0  0  0  0  0  0  0
    8.7483   -1.1265    0.4902 C   0  0  0  0  0  0  0  0  0  0  0  0
    7.4557   -1.0406    0.0076 C   0  0  0  0  0  0  0  0  0  0  0  0
    6.7790    0.1224   -0.1227 N   0  0  0  0  0  0  0  0  0  0  0  0
    1.1337    4.1087    0.4385 H   0  0  0  0  0  0  0  0  0  0  0  0
    1.1804    2.9687    1.8145 H   0  0  0  0  0  0  0  0  0  0  0  0
    0.6158    2.4125    0.2111 H   0  0  0  0  0  0  0  0  0  0  0  0
    3.3886    3.4606    0.4241 H   0  0  0  0  0  0  0  0  0  0  0  0
    5.0878    0.6020    0.1013 H   0  0  0  0  0  0  0  0  0  0  0  0
    9.1412    5.6206   -0.2242 H   0  0  0  0  0  0  0  0  0  0  0  0
   12.0131    6.0036   -2.2142 H   0  0  0  0  0  0  0  0  0  0  0  0
   10.8168    7.0325    0.1636 H   0  0  0  0  0  0  0  0  0  0  0  0
    9.9895    7.6889   -1.2798 H   0  0  0  0  0  0  0  0  0  0  0  0
   11.7487    7.9443   -1.0608 H   0  0  0  0  0  0  0  0  0  0  0  0
    5.0009    5.1377   -0.3670 H   0  0  0  0  0  0  0  0  0  0  0  0
    4.3234    7.2109    0.8245 H   0  0  0  0  0  0  0  0  0  0  0  0
    5.9223    8.2741    2.4211 H   0  0  0  0  0  0  0  0  0  0  0  0
    8.1680    7.2318    2.7318 H   0  0  0  0  0  0  0  0  0  0  0  0
    9.2374    2.1814    1.0097 H   0  0  0  0  0  0  0  0  0  0  0  0
   10.4040    0.0204    1.2479 H   0  0  0  0  0  0  0  0  0  0  0  0
    9.2450   -2.0871    0.5744 H   0  0  0  0  0  0  0  0  0  0  0  0
    6.9117   -1.9306   -0.2984 H   0  0  0  0  0  0  0  0  0  0  0  0
  1  2  1  0  0  0  0
  1 27  1  0  0  0  0
  1 28  1  0  0  0  0
  1 29  1  0  0  0  0
  2  3  1  0  0  0  0
  2 30  1  0  0  0  0
  3  4  2  0  0  0  0
  3  5  1  0  0  0  0
  5  6  1  0  0  0  0
  5 31  1  0  0  0  0
  6  7  2  0  0  0  0
  7  8  1  0  0  0  0
  7 21  1  0  0  0  0
  8  9  2  0  0  0  0
  8 15  1  0  0  0  0
  9 10  1  0  0  0  0
 10 11  1  0  0  0  0
 10 32  1  0  0  0  0
 11 12  2  0  0  0  0
 11 13  1  0  0  0  0
 13 14  1  0  0  0  0
 13 33  1  0  0  0  0
 14 34  1  0  0  0  0
 14 35  1  0  0  0  0
 14 36  1  0  0  0  0
 15 16  2  0  0  0  0
 15 20  1  0  0  0  0
 16 17  1  0  0  0  0
 16 37  1  0  0  0  0
 17 18  2  0  0  0  0
 17 38  1  0  0  0  0
 18 19  1  0  0  0  0
 18 39  1  0  0  0  0
 19 20  2  0  0  0  0
 19 40  1  0  0  0  0
 21 22  2  0  0  0  0
 21 26  1  0  0  0  0
 22 23  1  0  0  0  0
 22 41  1  0  0  0  0
 23 24  2  0  0  0  0
 23 42  1  0  0  0  0
 24 25  1  0  0  0  0
 24 43  1  0  0  0  0
 25 26  2  0  0  0  0
 25 44  1  0  0  0  0
M  END
