
 OpenBabel10072616323D

 32 33  0  0  0  0  0  0  0  0999 V2000
    2.1606    1.4647   -0.4494 C   0  0  0  0  0  0  0  0  0  0  0  0
    1.7530    0.3204   -1.1897 O   0  0  0  0  0  0  0  0  0  0  0  0
    2.7389   -0.5832   -1.5081 C   0  0  0  0  0  0  0  0  0  0  0  0
    2.4733   -1.4070   -2.6246 C   0  0  0  0  0  0  0  0  0  0  0  0
    3.4042   -2.3832   -2.9861 C   0  0  0  0  0  0  0  0  0  0  0  0
    4.5982   -2.5064   -2.2752 C   0  0  0  0  0  0  0  0  0  0  0  0
    4.8645   -1.6871   -1.1814 C   0  0  0  0  0  0  0  0  0  0  0  0
    3.9296   -0.7294   -0.7883 C   0  0  0  0  0  0  0  0  0  0  0  0
    5.7540   -3.6940   -2.7426 Cl  0  0  0  0  0  0  0  0  0  0  0  0
    1.2295   -1.2212   -3.2823 N   0  0  0  0  0  0  0  0  0  0  0  0
    0.8253   -1.5313   -4.5544 C   0  0  0  0  0  0  0  0  0  0  0  0
    1.7653   -1.8996   -5.8867 S   0  0  0  0  0  0  0  0  0  0  0  0
   -0.5244   -1.5071   -4.7663 N   0  0  0  0  0  0  0  0  0  0  0  0
   -1.5919   -1.3631   -3.7962 C   0  0  0  0  0  0  0  0  0  0  0  0
   -1.9225    0.0738   -3.6487 C   0  0  0  0  0  0  0  0  0  0  0  0
   -2.5986    0.9798   -4.4411 C   0  0  0  0  0  0  0  0  0  0  0  0
   -2.5978    2.2068   -3.7347 C   0  0  0  0  0  0  0  0  0  0  0  0
   -1.9175    1.9739   -2.5626 C   0  0  0  0  0  0  0  0  0  0  0  0
   -1.4992    0.6830   -2.5033 O   0  0  0  0  0  0  0  0  0  0  0  0
    3.0299    1.9496   -0.9063 H   0  0  0  0  0  0  0  0  0  0  0  0
    2.3604    1.2030    0.5941 H   0  0  0  0  0  0  0  0  0  0  0  0
    1.3327    2.1809   -0.4629 H   0  0  0  0  0  0  0  0  0  0  0  0
    3.2087   -3.0792   -3.7927 H   0  0  0  0  0  0  0  0  0  0  0  0
    5.7906   -1.7988   -0.6243 H   0  0  0  0  0  0  0  0  0  0  0  0
    4.1513   -0.1235    0.0839 H   0  0  0  0  0  0  0  0  0  0  0  0
    0.6291   -0.5558   -2.7969 H   0  0  0  0  0  0  0  0  0  0  0  0
   -0.7981   -1.6934   -5.7235 H   0  0  0  0  0  0  0  0  0  0  0  0
   -1.2955   -1.8133   -2.8432 H   0  0  0  0  0  0  0  0  0  0  0  0
   -2.4596   -1.9103   -4.1795 H   0  0  0  0  0  0  0  0  0  0  0  0
   -3.0371    0.7786   -5.4089 H   0  0  0  0  0  0  0  0  0  0  0  0
   -3.0381    3.1454   -4.0421 H   0  0  0  0  0  0  0  0  0  0  0  0
   -1.6591    2.5898   -1.7124 H   0  0  0  0  0  0  0  0  0  0  0  0
  1  2  1  0  0  0  0
  1 20  1  0  0  0  0
  1 21  1  0  0  0  0
  1 22  1  0  0  0  0
  2  3  1  0  0  0  0
  3  4  2  0  0  0  0
  3  8  1  0  0  0  0
  4  5  1  0  0  0  0
  4 10  1  0  0  0  0
  5  6  2  0  0  0  0
  5 23  1  0  0  0  0
  6  7  1  0  0  0  0
  6  9  1  0  0  0  0
  7  8  2  0  0  0  0
  7 24  1  0  0  0  0
  8 25  1  0  0  0  0
 10 11  1  0  0  0  0
 10 26  1  0  0  0  0
 11 12  2  0  0  0  0
 11 13  1  0  0  0  0
 13 14  1  0  0  0  0
 13 27  1  0  0  0  0
 14 15  1  0  0  0  0
 14 28  1  0  0  0  0
 14 29  1  0  0  0  0
 15 16  2  0  0  0  0
 15 19  1  0  0  0  0
 16 17  1  0  0  0  0
 16 30  1  0  0  0  0
 17 18  2  0  0  0  0
 17 31  1  0  0  0  0
 18 19  1  0  0  0  0
 18 32  1  0  0  0  0
M  END
