
 OpenBabel10072620233D

158163  0  0  0  0  0  0  0  0999 V2000
   18.9042  -17.1916    0.7874 C   0  0  0  0  0  0  0  0  0  0  0  0
   18.8055  -16.5170    2.1504 C   0  0  0  0  0  0  0  0  0  0  0  0
   17.4171  -16.3003    2.5974 N   0  0  0  0  0  0  0  0  0  0  0  0
   16.6709  -17.5453    2.8387 C   0  0  0  0  0  0  0  0  0  0  0  0
   17.2438  -18.5102    3.8734 C   0  0  0  0  0  0  0  0  0  0  0  0
   17.4128  -15.3765    3.7468 C   0  0  0  0  0  0  0  0  0  0  0  0
   16.0400  -14.8182    4.1598 C   0  0  0  0  0  0  0  0  0  0  0  0
   16.3042  -13.8205    5.1502 O   0  0  0  0  0  0  0  0  0  0  0  0
   15.2471  -13.3013    5.8396 C   0  0  0  0  0  0  0  0  0  0  0  0
   13.8994  -13.4136    5.4960 C   0  0  0  0  0  0  0  0  0  0  0  0
   12.9801  -12.7835    6.3244 C   0  0  0  0  0  0  0  0  0  0  0  0
   13.3502  -12.0710    7.4697 C   0  0  0  0  0  0  0  0  0  0  0  0
   14.6860  -11.9613    7.8128 C   0  0  0  0  0  0  0  0  0  0  0  0
   15.6315  -12.5736    6.9847 C   0  0  0  0  0  0  0  0  0  0  0  0
   12.1679  -11.5405    8.1013 C   0  0  0  0  0  0  0  0  0  0  0  0
   11.0254  -11.8811    7.3486 C   0  0  0  0  0  0  0  0  0  0  0  0
   11.4983  -12.7272    6.2163 C   0  0  0  0  0  0  0  0  0  0  0  0
   10.8967  -13.4096    5.2946 N   0  0  0  0  0  0  0  0  0  0  0  0
    9.5341  -13.3871    5.1842 N   0  0  0  0  0  0  0  0  0  0  0  0
    8.9127  -12.3132    4.5699 C   0  0  0  0  0  0  0  0  0  0  0  0
    9.4113  -11.2023    4.3953 O   0  0  0  0  0  0  0  0  0  0  0  0
    7.6233  -12.5274    4.1611 N   0  0  0  0  0  0  0  0  0  0  0  0
    6.9108  -13.7866    4.0373 C   0  0  0  0  0  0  0  0  0  0  0  0
    5.3946  -13.5965    4.0461 C   0  0  0  0  0  0  0  0  0  0  0  0
    4.6296  -14.8100    3.4923 C   0  0  0  0  0  0  0  0  0  0  0  0
    4.8438  -16.1094    4.2752 C   0  0  0  0  0  0  0  0  0  0  0  0
    4.0885  -17.3220    3.7008 C   0  0  0  0  0  0  0  0  0  0  0  0
    4.5073  -17.7717    2.2967 C   0  0  0  0  0  0  0  0  0  0  0  0
    5.8875  -18.2144    2.2584 N   0  0  0  0  0  0  0  0  0  0  0  0
    6.4257  -18.7490    1.0951 C   0  0  0  0  0  0  0  0  0  0  0  0
    5.7971  -18.8974    0.0573 O   0  0  0  0  0  0  0  0  0  0  0  0
    7.7791  -18.9969    1.3013 N   0  0  0  0  0  0  0  0  0  0  0  0
    8.5821  -19.3569    0.2669 N   0  0  0  0  0  0  0  0  0  0  0  0
    9.8414  -19.0627    0.3737 C   0  0  0  0  0  0  0  0  0  0  0  0
   10.6119  -18.3556    1.4369 C   0  0  0  0  0  0  0  0  0  0  0  0
   11.9097  -18.1462    0.9320 C   0  0  0  0  0  0  0  0  0  0  0  0
   12.8614  -17.4801    1.6876 C   0  0  0  0  0  0  0  0  0  0  0  0
   12.5305  -17.1169    2.9967 C   0  0  0  0  0  0  0  0  0  0  0  0
   11.2674  -17.4187    3.5280 C   0  0  0  0  0  0  0  0  0  0  0  0
   10.2707  -17.9802    2.7257 C   0  0  0  0  0  0  0  0  0  0  0  0
   11.0896  -17.1468    4.8617 O   0  0  0  0  0  0  0  0  0  0  0  0
   10.4191  -18.2071    5.5687 C   0  0  0  0  0  0  0  0  0  0  0  0
   10.7983  -18.1552    7.0609 C   0  0  0  0  0  0  0  0  0  0  0  0
    9.9826  -19.0298    7.9343 N   0  0  0  0  0  0  0  0  0  0  0  0
   10.0316  -20.4567    7.5760 C   0  0  0  0  0  0  0  0  0  0  0  0
   11.3914  -21.1432    7.6692 C   0  0  0  0  0  0  0  0  0  0  0  0
   10.2875  -18.7602    9.3524 C   0  0  0  0  0  0  0  0  0  0  0  0
    9.3353  -19.4403   10.3346 C   0  0  0  0  0  0  0  0  0  0  0  0
   12.0329  -18.7741   -0.3623 C   0  0  0  0  0  0  0  0  0  0  0  0
   10.8075  -19.3611   -0.7077 C   0  0  0  0  0  0  0  0  0  0  0  0
   10.6260  -20.1094   -1.8552 C   0  0  0  0  0  0  0  0  0  0  0  0
   11.7407  -20.2868   -2.6745 C   0  0  0  0  0  0  0  0  0  0  0  0
   12.9803  -19.7086   -2.3414 C   0  0  0  0  0  0  0  0  0  0  0  0
   13.1306  -18.9306   -1.1897 C   0  0  0  0  0  0  0  0  0  0  0  0
   11.7580  -21.0529   -3.8066 O   0  0  0  0  0  0  0  0  0  0  0  0
   10.5198  -21.0923   -4.5224 C   0  0  0  0  0  0  0  0  0  0  0  0
   10.8106  -21.7006   -5.8984 C   0  0  0  0  0  0  0  0  0  0  0  0
    9.6252  -21.7781   -6.7692 N   0  0  0  0  0  0  0  0  0  0  0  0
    9.1524  -20.4583   -7.2255 C   0  0  0  0  0  0  0  0  0  0  0  0
   10.1150  -19.6459   -8.0902 C   0  0  0  0  0  0  0  0  0  0  0  0
    9.8644  -22.7442   -7.8514 C   0  0  0  0  0  0  0  0  0  0  0  0
    8.6226  -23.0407   -8.6824 C   0  0  0  0  0  0  0  0  0  0  0  0
    9.7688  -11.4337    7.7223 C   0  0  0  0  0  0  0  0  0  0  0  0
    9.6599  -10.6307    8.8678 C   0  0  0  0  0  0  0  0  0  0  0  0
   10.7948  -10.3608    9.6541 C   0  0  0  0  0  0  0  0  0  0  0  0
   12.0591  -10.8017    9.2657 C   0  0  0  0  0  0  0  0  0  0  0  0
    8.4007  -10.1489    9.1407 O   0  0  0  0  0  0  0  0  0  0  0  0
    8.3356   -9.0723   10.0900 C   0  0  0  0  0  0  0  0  0  0  0  0
    6.9263   -8.4509   10.0919 C   0  0  0  0  0  0  0  0  0  0  0  0
    6.6939   -7.5145   11.2155 N   0  0  0  0  0  0  0  0  0  0  0  0
    7.5914   -6.3477   11.2074 C   0  0  0  0  0  0  0  0  0  0  0  0
    7.4726   -5.3996   10.0171 C   0  0  0  0  0  0  0  0  0  0  0  0
    5.2647   -7.1762   11.3263 C   0  0  0  0  0  0  0  0  0  0  0  0
    4.9139   -6.3922   12.5903 C   0  0  0  0  0  0  0  0  0  0  0  0
   19.9546  -17.2606    0.4851 H   0  0  0  0  0  0  0  0  0  0  0  0
   18.3756  -16.6067    0.0272 H   0  0  0  0  0  0  0  0  0  0  0  0
   18.4983  -18.2072    0.7938 H   0  0  0  0  0  0  0  0  0  0  0  0
   19.3041  -15.5442    2.0450 H   0  0  0  0  0  0  0  0  0  0  0  0
   19.3853  -17.0774    2.8934 H   0  0  0  0  0  0  0  0  0  0  0  0
   16.5567  -18.0813    1.8891 H   0  0  0  0  0  0  0  0  0  0  0  0
   15.6443  -17.3036    3.1318 H   0  0  0  0  0  0  0  0  0  0  0  0
   18.2141  -18.9086    3.5613 H   0  0  0  0  0  0  0  0  0  0  0  0
   16.5673  -19.3637    3.9973 H   0  0  0  0  0  0  0  0  0  0  0  0
   17.3540  -18.0347    4.8523 H   0  0  0  0  0  0  0  0  0  0  0  0
   18.0314  -14.5024    3.4993 H   0  0  0  0  0  0  0  0  0  0  0  0
   17.8998  -15.8234    4.6233 H   0  0  0  0  0  0  0  0  0  0  0  0
   15.4166  -15.6126    4.5840 H   0  0  0  0  0  0  0  0  0  0  0  0
   15.5416  -14.3651    3.2946 H   0  0  0  0  0  0  0  0  0  0  0  0
   13.5497  -13.9476    4.6211 H   0  0  0  0  0  0  0  0  0  0  0  0
   15.0122  -11.4112    8.6890 H   0  0  0  0  0  0  0  0  0  0  0  0
   16.6901  -12.4890    7.2295 H   0  0  0  0  0  0  0  0  0  0  0  0
    9.2164  -14.2706    4.8075 H   0  0  0  0  0  0  0  0  0  0  0  0
    7.2979  -11.7429    3.6075 H   0  0  0  0  0  0  0  0  0  0  0  0
    7.2086  -14.4500    4.8534 H   0  0  0  0  0  0  0  0  0  0  0  0
    7.2420  -14.2300    3.0926 H   0  0  0  0  0  0  0  0  0  0  0  0
    5.1377  -12.7252    3.4289 H   0  0  0  0  0  0  0  0  0  0  0  0
    5.0576  -13.3606    5.0644 H   0  0  0  0  0  0  0  0  0  0  0  0
    4.9252  -14.9468    2.4469 H   0  0  0  0  0  0  0  0  0  0  0  0
    3.5610  -14.5641    3.4919 H   0  0  0  0  0  0  0  0  0  0  0  0
    4.5027  -15.9564    5.3069 H   0  0  0  0  0  0  0  0  0  0  0  0
    5.9106  -16.3439    4.3375 H   0  0  0  0  0  0  0  0  0  0  0  0
    3.0129  -17.1086    3.6990 H   0  0  0  0  0  0  0  0  0  0  0  0
    4.2391  -18.1627    4.3899 H   0  0  0  0  0  0  0  0  0  0  0  0
    4.3657  -16.9804    1.5535 H   0  0  0  0  0  0  0  0  0  0  0  0
    3.8841  -18.6188    1.9853 H   0  0  0  0  0  0  0  0  0  0  0  0
    6.5567  -17.6148    2.7160 H   0  0  0  0  0  0  0  0  0  0  0  0
    7.9555  -19.4995    2.1632 H   0  0  0  0  0  0  0  0  0  0  0  0
   13.8513  -17.2762    1.2909 H   0  0  0  0  0  0  0  0  0  0  0  0
   13.2722  -16.6347    3.6278 H   0  0  0  0  0  0  0  0  0  0  0  0
    9.2820  -18.1422    3.1234 H   0  0  0  0  0  0  0  0  0  0  0  0
   10.7128  -19.1821    5.1587 H   0  0  0  0  0  0  0  0  0  0  0  0
    9.3369  -18.0716    5.4559 H   0  0  0  0  0  0  0  0  0  0  0  0
   10.6791  -17.1130    7.3865 H   0  0  0  0  0  0  0  0  0  0  0  0
   11.8693  -18.3718    7.1672 H   0  0  0  0  0  0  0  0  0  0  0  0
    9.6449  -20.5868    6.5583 H   0  0  0  0  0  0  0  0  0  0  0  0
    9.3168  -21.0136    8.1930 H   0  0  0  0  0  0  0  0  0  0  0  0
   12.1064  -20.7208    6.9570 H   0  0  0  0  0  0  0  0  0  0  0  0
   11.2835  -22.2078    7.4321 H   0  0  0  0  0  0  0  0  0  0  0  0
   11.8166  -21.0761    8.6747 H   0  0  0  0  0  0  0  0  0  0  0  0
   10.1969  -17.6813    9.5329 H   0  0  0  0  0  0  0  0  0  0  0  0
   11.3209  -19.0310    9.5998 H   0  0  0  0  0  0  0  0  0  0  0  0
    8.2909  -19.2095   10.0993 H   0  0  0  0  0  0  0  0  0  0  0  0
    9.5327  -19.0856   11.3521 H   0  0  0  0  0  0  0  0  0  0  0  0
    9.4600  -20.5272   10.3425 H   0  0  0  0  0  0  0  0  0  0  0  0
    9.6604  -20.5561   -2.0597 H   0  0  0  0  0  0  0  0  0  0  0  0
   13.8352  -19.8770   -2.9939 H   0  0  0  0  0  0  0  0  0  0  0  0
   14.0944  -18.4943   -0.9513 H   0  0  0  0  0  0  0  0  0  0  0  0
   10.1236  -20.0763   -4.6225 H   0  0  0  0  0  0  0  0  0  0  0  0
    9.7991  -21.7267   -3.9927 H   0  0  0  0  0  0  0  0  0  0  0  0
   11.1987  -22.7113   -5.7076 H   0  0  0  0  0  0  0  0  0  0  0  0
   11.6421  -21.1717   -6.3820 H   0  0  0  0  0  0  0  0  0  0  0  0
    8.8705  -19.8493   -6.3583 H   0  0  0  0  0  0  0  0  0  0  0  0
    8.2088  -20.5777   -7.7698 H   0  0  0  0  0  0  0  0  0  0  0  0
   10.9954  -19.3255   -7.5246 H   0  0  0  0  0  0  0  0  0  0  0  0
    9.6133  -18.7410   -8.4507 H   0  0  0  0  0  0  0  0  0  0  0  0
   10.4488  -20.2050   -8.9689 H   0  0  0  0  0  0  0  0  0  0  0  0
   10.1724  -23.6996   -7.4059 H   0  0  0  0  0  0  0  0  0  0  0  0
   10.6861  -22.4260   -8.5039 H   0  0  0  0  0  0  0  0  0  0  0  0
    7.7841  -23.3381   -8.0433 H   0  0  0  0  0  0  0  0  0  0  0  0
    8.8264  -23.8644   -9.3736 H   0  0  0  0  0  0  0  0  0  0  0  0
    8.3181  -22.1780   -9.2817 H   0  0  0  0  0  0  0  0  0  0  0  0
    8.8847  -11.6562    7.1401 H   0  0  0  0  0  0  0  0  0  0  0  0
   10.7276   -9.7986   10.5796 H   0  0  0  0  0  0  0  0  0  0  0  0
   12.9325  -10.5596    9.8613 H   0  0  0  0  0  0  0  0  0  0  0  0
    9.0679   -8.3013    9.8221 H   0  0  0  0  0  0  0  0  0  0  0  0
    8.5505   -9.4704   11.0887 H   0  0  0  0  0  0  0  0  0  0  0  0
    6.2121   -9.2823   10.1572 H   0  0  0  0  0  0  0  0  0  0  0  0
    6.7345   -7.9768    9.1202 H   0  0  0  0  0  0  0  0  0  0  0  0
    8.6303   -6.6909   11.2767 H   0  0  0  0  0  0  0  0  0  0  0  0
    7.4541   -5.7723   12.1299 H   0  0  0  0  0  0  0  0  0  0  0  0
    7.7314   -5.8950    9.0764 H   0  0  0  0  0  0  0  0  0  0  0  0
    8.1666   -4.5611   10.1452 H   0  0  0  0  0  0  0  0  0  0  0  0
    6.4661   -4.9805    9.9273 H   0  0  0  0  0  0  0  0  0  0  0  0
    4.6848   -8.1074   11.3713 H   0  0  0  0  0  0  0  0  0  0  0  0
    4.9083   -6.6289   10.4456 H   0  0  0  0  0  0  0  0  0  0  0  0
    5.2486   -6.9205   13.4896 H   0  0  0  0  0  0  0  0  0  0  0  0
    3.8285   -6.2644   12.6643 H   0  0  0  0  0  0  0  0  0  0  0  0
    5.3547   -5.3909   12.5905 H   0  0  0  0  0  0  0  0  0  0  0  0
  1  2  1  0  0  0  0
  1 75  1  0  0  0  0
  1 76  1  0  0  0  0
  1 77  1  0  0  0  0
  2  3  1  0  0  0  0
  2 78  1  0  0  0  0
  2 79  1  0  0  0  0
  3  4  1  0  0  0  0
  3  6  1  0  0  0  0
  4  5  1  0  0  0  0
  4 80  1  0  0  0  0
  4 81  1  0  0  0  0
  5 82  1  0  0  0  0
  5 83  1  0  0  0  0
  5 84  1  0  0  0  0
  6  7  1  0  0  0  0
  6 85  1  0  0  0  0
  6 86  1  0  0  0  0
  7  8  1  0  0  0  0
  7 87  1  0  0  0  0
  7 88  1  0  0  0  0
  8  9  1  0  0  0  0
  9 10  2  0  0  0  0
  9 14  1  0  0  0  0
 10 11  1  0  0  0  0
 10 89  1  0  0  0  0
 11 12  2  0  0  0  0
 11 17  1  0  0  0  0
 12 13  1  0  0  0  0
 12 15  1  0  0  0  0
 13 14  2  0  0  0  0
 13 90  1  0  0  0  0
 14 91  1  0  0  0  0
 15 16  2  0  0  0  0
 15 66  1  0  0  0  0
 16 17  1  0  0  0  0
 16 63  1  0  0  0  0
 17 18  2  0  0  0  0
 18 19  1  0  0  0  0
 19 20  1  0  0  0  0
 19 92  1  0  0  0  0
 20 21  2  0  0  0  0
 20 22  1  0  0  0  0
 22 23  1  0  0  0  0
 22 93  1  0  0  0  0
 23 24  1  0  0  0  0
 23 94  1  0  0  0  0
 23 95  1  0  0  0  0
 24 25  1  0  0  0  0
 24 96  1  0  0  0  0
 24 97  1  0  0  0  0
 25 26  1  0  0  0  0
 25 98  1  0  0  0  0
 25 99  1  0  0  0  0
 26 27  1  0  0  0  0
 26100  1  0  0  0  0
 26101  1  0  0  0  0
 27 28  1  0  0  0  0
 27102  1  0  0  0  0
 27103  1  0  0  0  0
 28 29  1  0  0  0  0
 28104  1  0  0  0  0
 28105  1  0  0  0  0
 29 30  1  0  0  0  0
 29106  1  0  0  0  0
 30 31  2  0  0  0  0
 30 32  1  0  0  0  0
 32 33  1  0  0  0  0
 32107  1  0  0  0  0
 33 34  2  0  0  0  0
 34 35  1  0  0  0  0
 34 50  1  0  0  0  0
 35 36  2  0  0  0  0
 35 40  1  0  0  0  0
 36 37  1  0  0  0  0
 36 49  1  0  0  0  0
 37 38  2  0  0  0  0
 37108  1  0  0  0  0
 38 39  1  0  0  0  0
 38109  1  0  0  0  0
 39 40  2  0  0  0  0
 39 41  1  0  0  0  0
 40110  1  0  0  0  0
 41 42  1  0  0  0  0
 42 43  1  0  0  0  0
 42111  1  0  0  0  0
 42112  1  0  0  0  0
 43 44  1  0  0  0  0
 43113  1  0  0  0  0
 43114  1  0  0  0  0
 44 45  1  0  0  0  0
 44 47  1  0  0  0  0
 45 46  1  0  0  0  0
 45115  1  0  0  0  0
 45116  1  0  0  0  0
 46117  1  0  0  0  0
 46118  1  0  0  0  0
 46119  1  0  0  0  0
 47 48  1  0  0  0  0
 47120  1  0  0  0  0
 47121  1  0  0  0  0
 48122  1  0  0  0  0
 48123  1  0  0  0  0
 48124  1  0  0  0  0
 49 50  2  0  0  0  0
 49 54  1  0  0  0  0
 50 51  1  0  0  0  0
 51 52  2  0  0  0  0
 51125  1  0  0  0  0
 52 53  1  0  0  0  0
 52 55  1  0  0  0  0
 53 54  2  0  0  0  0
 53126  1  0  0  0  0
 54127  1  0  0  0  0
 55 56  1  0  0  0  0
 56 57  1  0  0  0  0
 56128  1  0  0  0  0
 56129  1  0  0  0  0
 57 58  1  0  0  0  0
 57130  1  0  0  0  0
 57131  1  0  0  0  0
 58 59  1  0  0  0  0
 58 61  1  0  0  0  0
 59 60  1  0  0  0  0
 59132  1  0  0  0  0
 59133  1  0  0  0  0
 60134  1  0  0  0  0
 60135  1  0  0  0  0
 60136  1  0  0  0  0
 61 62  1  0  0  0  0
 61137  1  0  0  0  0
 61138  1  0  0  0  0
 62139  1  0  0  0  0
 62140  1  0  0  0  0
 62141  1  0  0  0  0
 63 64  2  0  0  0  0
 63142  1  0  0  0  0
 64 65  1  0  0  0  0
 64 67  1  0  0  0  0
 65 66  2  0  0  0  0
 65143  1  0  0  0  0
 66144  1  0  0  0  0
 67 68  1  0  0  0  0
 68 69  1  0  0  0  0
 68145  1  0  0  0  0
 68146  1  0  0  0  0
 69 70  1  0  0  0  0
 69147  1  0  0  0  0
 69148  1  0  0  0  0
 70 71  1  0  0  0  0
 70 73  1  0  0  0  0
 71 72  1  0  0  0  0
 71149  1  0  0  0  0
 71150  1  0  0  0  0
 72151  1  0  0  0  0
 72152  1  0  0  0  0
 72153  1  0  0  0  0
 73 74  1  0  0  0  0
 73154  1  0  0  0  0
 73155  1  0  0  0  0
 74156  1  0  0  0  0
 74157  1  0  0  0  0
 74158  1  0  0  0  0
M  END
