
 OpenBabel10072620213D

 53 56  0  0  0  0  0  0  0  0999 V2000
    1.2251    0.3719   -0.3118 C   0  0  0  0  0  0  0  0  0  0  0  0
    2.7159    0.3567   -0.1668 C   0  0  0  0  0  0  0  0  0  0  0  0
    3.5144    1.4264    0.0532 N   0  3  0  0  0  0  0  0  0  0  0  0
    4.8562    1.0215    0.1550 C   0  0  0  0  0  0  0  0  0  0  0  0
    4.8654   -0.3370   -0.0140 C   0  0  0  0  0  0  0  0  0  0  0  0
    3.5266   -0.7261   -0.1939 N   0  0  0  0  0  0  0  0  0  0  0  0
    3.0955   -2.1208   -0.4583 C   0  0  0  0  0  0  0  0  0  0  0  0
    2.9954   -2.9720    0.8017 C   0  0  0  0  0  0  0  0  0  0  0  0
    1.8143   -2.6124    1.6917 C   0  0  0  0  0  0  0  0  0  0  0  0
    0.6292   -2.5729    0.9019 O   0  0  0  0  0  0  0  0  0  0  0  0
   -0.5463   -2.5973    1.7079 C   0  0  0  0  0  0  0  0  0  0  0  0
    6.0504   -1.1463    0.0016 C   0  0  0  0  0  0  0  0  0  0  0  0
    6.1178   -2.3676   -0.1061 O   0  0  0  0  0  0  0  0  0  0  0  0
    7.3122   -0.3632    0.1727 C   0  0  0  0  0  0  0  0  0  0  0  0
    8.5365   -1.0488    0.1418 C   0  0  0  0  0  0  0  0  0  0  0  0
    9.7377   -0.3525    0.2818 C   0  0  0  0  0  0  0  0  0  0  0  0
    9.7283    1.0286    0.4620 C   0  0  0  0  0  0  0  0  0  0  0  0
    8.5173    1.7209    0.5018 C   0  0  0  0  0  0  0  0  0  0  0  0
    7.3025    1.0322    0.3540 C   0  0  0  0  0  0  0  0  0  0  0  0
    6.0298    1.8146    0.3849 C   0  0  0  0  0  0  0  0  0  0  0  0
    6.0831    3.0233    0.5900 O   0  0  0  0  0  0  0  0  0  0  0  0
    3.0608    2.8292    0.1181 C   0  0  0  0  0  0  0  0  0  0  0  0
    2.5044    3.1887    1.4779 C   0  0  0  0  0  0  0  0  0  0  0  0
    2.5486    2.3319    2.5898 C   0  0  0  0  0  0  0  0  0  0  0  0
    2.0225    2.7310    3.8228 C   0  0  0  0  0  0  0  0  0  0  0  0
    1.4559    4.0032    3.9605 C   0  0  0  0  0  0  0  0  0  0  0  0
    1.4088    4.8745    2.8692 C   0  0  0  0  0  0  0  0  0  0  0  0
    1.9313    4.4655    1.6382 C   0  0  0  0  0  0  0  0  0  0  0  0
    0.9107    4.4194    5.2591 N   0  3  0  0  0  0  0  0  0  0  0  0
    0.9344    3.5910    6.1791 O   0  0  0  0  0  0  0  0  0  0  0  0
    0.4552    5.5676    5.3500 O   0  5  0  0  0  0  0  0  0  0  0  0
    0.9100    1.3555   -0.6550 H   0  0  0  0  0  0  0  0  0  0  0  0
    0.8068    0.1548    0.6715 H   0  0  0  0  0  0  0  0  0  0  0  0
    0.9399   -0.3744   -1.0507 H   0  0  0  0  0  0  0  0  0  0  0  0
    3.8227   -2.5657   -1.1473 H   0  0  0  0  0  0  0  0  0  0  0  0
    2.1544   -2.1138   -1.0134 H   0  0  0  0  0  0  0  0  0  0  0  0
    3.9181   -2.9163    1.3878 H   0  0  0  0  0  0  0  0  0  0  0  0
    2.8767   -4.0154    0.4841 H   0  0  0  0  0  0  0  0  0  0  0  0
    1.9647   -1.6311    2.1539 H   0  0  0  0  0  0  0  0  0  0  0  0
    1.7211   -3.3614    2.4864 H   0  0  0  0  0  0  0  0  0  0  0  0
   -1.4154   -2.5100    1.0504 H   0  0  0  0  0  0  0  0  0  0  0  0
   -0.5477   -1.7563    2.4076 H   0  0  0  0  0  0  0  0  0  0  0  0
   -0.6131   -3.5446    2.2511 H   0  0  0  0  0  0  0  0  0  0  0  0
    8.5693   -2.1298    0.0048 H   0  0  0  0  0  0  0  0  0  0  0  0
   10.6851   -0.8896    0.2523 H   0  0  0  0  0  0  0  0  0  0  0  0
   10.6688    1.5674    0.5718 H   0  0  0  0  0  0  0  0  0  0  0  0
    8.5373    2.8013    0.6489 H   0  0  0  0  0  0  0  0  0  0  0  0
    2.2935    2.9711   -0.6500 H   0  0  0  0  0  0  0  0  0  0  0  0
    3.8820    3.5009   -0.1427 H   0  0  0  0  0  0  0  0  0  0  0  0
    2.9947    1.3429    2.5288 H   0  0  0  0  0  0  0  0  0  0  0  0
    2.0657    2.0451    4.6670 H   0  0  0  0  0  0  0  0  0  0  0  0
    0.9749    5.8692    2.9584 H   0  0  0  0  0  0  0  0  0  0  0  0
    1.8929    5.1638    0.8010 H   0  0  0  0  0  0  0  0  0  0  0  0
  1  2  1  0  0  0  0
  1 32  1  0  0  0  0
  1 33  1  0  0  0  0
  1 34  1  0  0  0  0
  2  3  2  0  0  0  0
  2  6  1  0  0  0  0
  3  4  1  0  0  0  0
  3 22  1  0  0  0  0
  4  5  2  0  0  0  0
  4 20  1  0  0  0  0
  5  6  1  0  0  0  0
  5 12  1  0  0  0  0
  6  7  1  0  0  0  0
  7  8  1  0  0  0  0
  7 35  1  0  0  0  0
  7 36  1  0  0  0  0
  8  9  1  0  0  0  0
  8 37  1  0  0  0  0
  8 38  1  0  0  0  0
  9 10  1  0  0  0  0
  9 39  1  0  0  0  0
  9 40  1  0  0  0  0
 10 11  1  0  0  0  0
 11 41  1  0  0  0  0
 11 42  1  0  0  0  0
 11 43  1  0  0  0  0
 12 13  2  0  0  0  0
 12 14  1  0  0  0  0
 14 15  2  0  0  0  0
 14 19  1  0  0  0  0
 15 16  1  0  0  0  0
 15 44  1  0  0  0  0
 16 17  2  0  0  0  0
 16 45  1  0  0  0  0
 17 18  1  0  0  0  0
 17 46  1  0  0  0  0
 18 19  2  0  0  0  0
 18 47  1  0  0  0  0
 19 20  1  0  0  0  0
 20 21  2  0  0  0  0
 22 23  1  0  0  0  0
 22 48  1  0  0  0  0
 22 49  1  0  0  0  0
 23 24  2  0  0  0  0
 23 28  1  0  0  0  0
 24 25  1  0  0  0  0
 24 50  1  0  0  0  0
 25 26  2  0  0  0  0
 25 51  1  0  0  0  0
 26 27  1  0  0  0  0
 26 29  1  0  0  0  0
 27 28  2  0  0  0  0
 27 52  1  0  0  0  0
 28 53  1  0  0  0  0
 29 30  2  0  0  0  0
 29 31  1  0  0  0  0
M  CHG  3   3   1  29   1  31  -1
M  END
