
 OpenBabel10072616343D

 59 61  0  0  0  0  0  0  0  0999 V2000
    2.0665   -0.0112    2.9127 C   0  0  0  0  0  0  0  0  0  0  0  0
    3.1879   -0.4789    2.0037 C   0  0  0  0  0  0  0  0  0  0  0  0
    4.0756    0.6371    1.8327 O   0  0  0  0  0  0  0  0  0  0  0  0
    3.7629    1.5180    0.8491 C   0  0  0  0  0  0  0  0  0  0  0  0
    3.0316    1.2790   -0.1030 O   0  0  0  0  0  0  0  0  0  0  0  0
    4.3590    2.8466    1.1467 C   0  0  0  0  0  0  0  0  0  0  0  0
    4.0019    3.8715    0.3432 C   0  0  0  0  0  0  0  0  0  0  0  0
    4.4386    5.2577    0.5522 C   0  0  0  0  0  0  0  0  0  0  0  0
    5.6452    5.7029   -0.0054 C   0  0  0  0  0  0  0  0  0  0  0  0
    6.0925    7.0183    0.1958 C   0  0  0  0  0  0  0  0  0  0  0  0
    5.2964    7.9038    0.9400 C   0  0  0  0  0  0  0  0  0  0  0  0
    4.0952    7.4474    1.4992 C   0  0  0  0  0  0  0  0  0  0  0  0
    3.6670    6.1347    1.3145 C   0  0  0  0  0  0  0  0  0  0  0  0
    5.5115    9.2280    1.2116 O   0  0  0  0  0  0  0  0  0  0  0  0
    6.6616    9.8732    0.6740 C   0  0  0  0  0  0  0  0  0  0  0  0
    6.6680   11.3411    1.0893 C   0  0  0  0  0  0  0  0  0  0  0  0
    7.7213   11.9583    1.2125 O   0  0  0  0  0  0  0  0  0  0  0  0
    5.3840   11.8538    1.2258 N   0  0  0  0  0  0  0  0  0  0  0  0
    5.0127   13.1550    1.6071 C   0  0  0  0  0  0  0  0  0  0  0  0
    5.9365   14.1498    1.9126 C   0  0  0  0  0  0  0  0  0  0  0  0
    5.5072   15.4118    2.3308 C   0  0  0  0  0  0  0  0  0  0  0  0
    4.1444   15.7250    2.3871 C   0  0  0  0  0  0  0  0  0  0  0  0
    3.2107   14.7358    2.0868 C   0  0  0  0  0  0  0  0  0  0  0  0
    3.6429   13.4556    1.6997 C   0  0  0  0  0  0  0  0  0  0  0  0
    3.6489   16.9621    2.7433 O   0  0  0  0  0  0  0  0  0  0  0  0
    4.3659   18.0914    2.4039 C   0  0  0  0  0  0  0  0  0  0  0  0
    5.1667   18.1971    1.2582 C   0  0  0  0  0  0  0  0  0  0  0  0
    5.9431   19.3304    1.0394 C   0  0  0  0  0  0  0  0  0  0  0  0
    5.8563   20.4088    1.9141 C   0  0  0  0  0  0  0  0  0  0  0  0
    4.9875   20.3487    3.0074 C   0  0  0  0  0  0  0  0  0  0  0  0
    4.2429   19.1905    3.2571 C   0  0  0  0  0  0  0  0  0  0  0  0
    7.2540    7.4832   -0.3586 O   0  0  0  0  0  0  0  0  0  0  0  0
    8.3047    6.5392   -0.5493 C   0  0  0  0  0  0  0  0  0  0  0  0
    5.1619    3.0019    2.3095 C   0  0  0  0  0  0  0  0  0  0  0  0
    5.7900    3.1398    3.2752 N   0  0  0  0  0  0  0  0  0  0  0  0
    1.3337   -0.7983    3.0897 H   0  0  0  0  0  0  0  0  0  0  0  0
    1.5605    0.8588    2.4817 H   0  0  0  0  0  0  0  0  0  0  0  0
    2.4764    0.3200    3.8730 H   0  0  0  0  0  0  0  0  0  0  0  0
    2.8149   -0.8740    1.0541 H   0  0  0  0  0  0  0  0  0  0  0  0
    3.7643   -1.2756    2.4846 H   0  0  0  0  0  0  0  0  0  0  0  0
    3.3351    3.7070   -0.5069 H   0  0  0  0  0  0  0  0  0  0  0  0
    6.2179    5.0101   -0.6142 H   0  0  0  0  0  0  0  0  0  0  0  0
    3.4907    8.1311    2.0914 H   0  0  0  0  0  0  0  0  0  0  0  0
    2.7324    5.8202    1.7724 H   0  0  0  0  0  0  0  0  0  0  0  0
    6.6426    9.8828   -0.4193 H   0  0  0  0  0  0  0  0  0  0  0  0
    7.5757    9.4309    1.0777 H   0  0  0  0  0  0  0  0  0  0  0  0
    4.6336   11.1788    1.1091 H   0  0  0  0  0  0  0  0  0  0  0  0
    7.0066   13.9931    1.8358 H   0  0  0  0  0  0  0  0  0  0  0  0
    6.2619   16.1496    2.5979 H   0  0  0  0  0  0  0  0  0  0  0  0
    2.1459   14.9551    2.1344 H   0  0  0  0  0  0  0  0  0  0  0  0
    2.8934   12.6961    1.4775 H   0  0  0  0  0  0  0  0  0  0  0  0
    5.2336   17.3944    0.5262 H   0  0  0  0  0  0  0  0  0  0  0  0
    6.6281   19.3537    0.1969 H   0  0  0  0  0  0  0  0  0  0  0  0
    6.4578   21.2995    1.7410 H   0  0  0  0  0  0  0  0  0  0  0  0
    4.8997   21.2024    3.6748 H   0  0  0  0  0  0  0  0  0  0  0  0
    3.5830   19.1411    4.1210 H   0  0  0  0  0  0  0  0  0  0  0  0
    9.2274    7.1017   -0.7306 H   0  0  0  0  0  0  0  0  0  0  0  0
    8.1211    5.9227   -1.4350 H   0  0  0  0  0  0  0  0  0  0  0  0
    8.4615    5.9181    0.3401 H   0  0  0  0  0  0  0  0  0  0  0  0
  1  2  1  0  0  0  0
  1 36  1  0  0  0  0
  1 37  1  0  0  0  0
  1 38  1  0  0  0  0
  2  3  1  0  0  0  0
  2 39  1  0  0  0  0
  2 40  1  0  0  0  0
  3  4  1  0  0  0  0
  4  5  2  0  0  0  0
  4  6  1  0  0  0  0
  6  7  2  0  0  0  0
  6 34  1  0  0  0  0
  7  8  1  0  0  0  0
  7 41  1  0  0  0  0
  8  9  2  0  0  0  0
  8 13  1  0  0  0  0
  9 10  1  0  0  0  0
  9 42  1  0  0  0  0
 10 11  2  0  0  0  0
 10 32  1  0  0  0  0
 11 12  1  0  0  0  0
 11 14  1  0  0  0  0
 12 13  2  0  0  0  0
 12 43  1  0  0  0  0
 13 44  1  0  0  0  0
 14 15  1  0  0  0  0
 15 16  1  0  0  0  0
 15 45  1  0  0  0  0
 15 46  1  0  0  0  0
 16 17  2  0  0  0  0
 16 18  1  0  0  0  0
 18 19  1  0  0  0  0
 18 47  1  0  0  0  0
 19 20  2  0  0  0  0
 19 24  1  0  0  0  0
 20 21  1  0  0  0  0
 20 48  1  0  0  0  0
 21 22  2  0  0  0  0
 21 49  1  0  0  0  0
 22 23  1  0  0  0  0
 22 25  1  0  0  0  0
 23 24  2  0  0  0  0
 23 50  1  0  0  0  0
 24 51  1  0  0  0  0
 25 26  1  0  0  0  0
 26 27  2  0  0  0  0
 26 31  1  0  0  0  0
 27 28  1  0  0  0  0
 27 52  1  0  0  0  0
 28 29  2  0  0  0  0
 28 53  1  0  0  0  0
 29 30  1  0  0  0  0
 29 54  1  0  0  0  0
 30 31  2  0  0  0  0
 30 55  1  0  0  0  0
 31 56  1  0  0  0  0
 32 33  1  0  0  0  0
 33 57  1  0  0  0  0
 33 58  1  0  0  0  0
 33 59  1  0  0  0  0
 34 35  3  0  0  0  0
M  END
