
 OpenBabel10072616333D

 38 40  0  0  0  0  0  0  0  0999 V2000
    1.3757    0.2931    0.5368 C   0  0  0  0  0  0  0  0  0  0  0  0
    0.7629   -0.9626    0.5500 C   0  0  0  0  0  0  0  0  0  0  0  0
   -0.5116   -1.1517   -0.0033 C   0  0  0  0  0  0  0  0  0  0  0  0
   -1.1549   -0.0441   -0.5779 C   0  0  0  0  0  0  0  0  0  0  0  0
   -0.5519    1.2261   -0.5962 C   0  0  0  0  0  0  0  0  0  0  0  0
    0.7200    1.3833   -0.0295 C   0  0  0  0  0  0  0  0  0  0  0  0
   -1.2547    2.4101   -1.2099 C   0  0  0  0  0  0  0  0  0  0  0  0
   -2.5173    2.1334   -1.6394 F   0  0  0  0  0  0  0  0  0  0  0  0
   -1.3755    3.4518   -0.3411 F   0  0  0  0  0  0  0  0  0  0  0  0
   -0.5932    2.9028   -2.2937 F   0  0  0  0  0  0  0  0  0  0  0  0
   -1.1462   -2.4683    0.0206 C   0  0  0  0  0  0  0  0  0  0  0  0
   -0.8101   -3.6948    0.5534 C   0  0  0  0  0  0  0  0  0  0  0  0
   -1.8636   -4.5808    0.2225 C   0  0  0  0  0  0  0  0  0  0  0  0
   -2.8000   -3.8639   -0.5061 C   0  0  0  0  0  0  0  0  0  0  0  0
   -2.3526   -2.5706   -0.6114 O   0  0  0  0  0  0  0  0  0  0  0  0
   -4.0296   -4.2981   -1.0608 C   0  0  0  0  0  0  0  0  0  0  0  0
   -5.1836   -4.2564   -0.3768 C   0  0  0  0  0  0  0  0  0  0  0  0
   -5.3736   -3.7734    0.9822 C   0  0  0  0  0  0  0  0  0  0  0  0
   -5.9014   -4.4823    1.9913 C   0  0  0  0  0  0  0  0  0  0  0  0
   -6.0379   -3.9128    3.3345 C   0  0  0  0  0  0  0  0  0  0  0  0
   -6.5046   -4.5226    4.2889 O   0  0  0  0  0  0  0  0  0  0  0  0
   -5.6037   -2.6135    3.4549 N   0  0  0  0  0  0  0  0  0  0  0  0
   -5.0617   -1.8590    2.4496 C   0  0  0  0  0  0  0  0  0  0  0  0
   -4.6793   -0.7102    2.6316 O   0  0  0  0  0  0  0  0  0  0  0  0
   -4.9763   -2.4754    1.2297 N   0  0  0  0  0  0  0  0  0  0  0  0
   -6.2791   -5.8404    1.7890 N   0  3  0  0  0  0  0  0  0  0  0  0
   -5.4497   -6.7060    2.0966 O   0  0  0  0  0  0  0  0  0  0  0  0
   -7.3823   -6.0442    1.2653 O   0  5  0  0  0  0  0  0  0  0  0  0
    2.3637    0.4180    0.9740 H   0  0  0  0  0  0  0  0  0  0  0  0
    1.2993   -1.7931    1.0019 H   0  0  0  0  0  0  0  0  0  0  0  0
   -2.1457   -0.1625   -1.0160 H   0  0  0  0  0  0  0  0  0  0  0  0
    1.2013    2.3604   -0.0242 H   0  0  0  0  0  0  0  0  0  0  0  0
    0.0837   -3.9307    1.1139 H   0  0  0  0  0  0  0  0  0  0  0  0
   -1.9392   -5.6283    0.4835 H   0  0  0  0  0  0  0  0  0  0  0  0
   -4.0112   -4.6850   -2.0756 H   0  0  0  0  0  0  0  0  0  0  0  0
   -6.0781   -4.6375   -0.8723 H   0  0  0  0  0  0  0  0  0  0  0  0
   -5.6723   -2.1785    4.3637 H   0  0  0  0  0  0  0  0  0  0  0  0
   -4.5382   -1.9302    0.4911 H   0  0  0  0  0  0  0  0  0  0  0  0
  1  2  2  0  0  0  0
  1  6  1  0  0  0  0
  1 29  1  0  0  0  0
  2  3  1  0  0  0  0
  2 30  1  0  0  0  0
  3  4  2  0  0  0  0
  3 11  1  0  0  0  0
  4  5  1  0  0  0  0
  4 31  1  0  0  0  0
  5  6  2  0  0  0  0
  5  7  1  0  0  0  0
  6 32  1  0  0  0  0
  7  8  1  0  0  0  0
  7  9  1  0  0  0  0
  7 10  1  0  0  0  0
 11 12  2  0  0  0  0
 11 15  1  0  0  0  0
 12 13  1  0  0  0  0
 12 33  1  0  0  0  0
 13 14  2  0  0  0  0
 13 34  1  0  0  0  0
 14 15  1  0  0  0  0
 14 16  1  0  0  0  0
 16 17  2  0  0  0  0
 16 35  1  0  0  0  0
 17 18  1  0  0  0  0
 17 36  1  0  0  0  0
 18 19  2  0  0  0  0
 18 25  1  0  0  0  0
 19 20  1  0  0  0  0
 19 26  1  0  0  0  0
 20 21  2  0  0  0  0
 20 22  1  0  0  0  0
 22 23  1  0  0  0  0
 22 37  1  0  0  0  0
 23 24  2  0  0  0  0
 23 25  1  0  0  0  0
 25 38  1  0  0  0  0
 26 27  2  0  0  0  0
 26 28  1  0  0  0  0
M  CHG  2  26   1  28  -1
M  END
