
 OpenBabel10072615203D

  8  7  0  0  0  0  0  0  0  0999 V2000
    0.9577   -0.1442    0.0110 O   0  0  0  0  0  0  0  0  0  0  0  0
    2.1795   -0.0744    0.0656 C   0  0  0  0  0  0  0  0  0  0  0  0
    2.9708   -0.9311   -0.6531 O   0  0  0  0  0  0  0  0  0  0  0  0
    2.9834    0.9282    0.9016 C   0  0  0  0  0  0  0  0  0  0  0  0
    4.3248    0.7216    0.7245 F   0  0  0  0  0  0  0  0  0  0  0  0
    2.7499    2.2219    0.5581 F   0  0  0  0  0  0  0  0  0  0  0  0
    2.7552    0.8181    2.2365 F   0  0  0  0  0  0  0  0  0  0  0  0
    3.9288   -0.7595   -0.5125 H   0  0  0  0  0  0  0  0  0  0  0  0
  1  2  2  0  0  0  0
  2  3  1  0  0  0  0
  2  4  1  0  0  0  0
  3  8  1  0  0  0  0
  4  5  1  0  0  0  0
  4  6  1  0  0  0  0
  4  7  1  0  0  0  0
M  END
