
 OpenBabel10072620223D

 34 36  0  0  0  0  0  0  0  0999 V2000
   -6.0236    1.7270    0.8629 C   0  0  0  0  0  0  0  0  0  0  0  0
   -4.5519    1.4376    0.9001 C   0  0  0  0  0  0  0  0  0  0  0  0
   -3.6519    2.2405    0.1872 C   0  0  0  0  0  0  0  0  0  0  0  0
   -2.2811    1.9881    0.2538 C   0  0  0  0  0  0  0  0  0  0  0  0
   -1.7926    0.9499    1.0447 C   0  0  0  0  0  0  0  0  0  0  0  0
   -2.6812    0.1548    1.7674 C   0  0  0  0  0  0  0  0  0  0  0  0
   -4.0539    0.4005    1.6993 C   0  0  0  0  0  0  0  0  0  0  0  0
   -1.3771    2.8377   -0.4415 N   0  0  0  0  0  0  0  0  0  0  0  0
   -0.7541    4.1725    0.3894 S   0  0  0  0  0  0  0  0  0  0  0  0
   -0.5553    3.8351    1.7818 O   0  0  0  0  0  0  0  0  0  0  0  0
    0.3391    4.6727   -0.4180 O   0  0  0  0  0  0  0  0  0  0  0  0
   -2.0761    5.3542    0.2702 C   0  0  0  0  0  0  0  0  0  0  0  0
   -2.9041    5.5664    1.3809 C   0  0  0  0  0  0  0  0  0  0  0  0
   -3.8913    6.5072    1.2228 C   0  0  0  0  0  0  0  0  0  0  0  0
   -4.0615    7.2225    0.0360 C   0  0  0  0  0  0  0  0  0  0  0  0
   -3.2522    7.0377   -1.0604 C   0  0  0  0  0  0  0  0  0  0  0  0
   -2.2359    6.0842   -0.9347 C   0  0  0  0  0  0  0  0  0  0  0  0
   -5.1342    8.0888    0.2102 N   0  0  0  0  0  0  0  0  0  0  0  0
   -5.6420    7.9245    1.5074 C   0  0  0  0  0  0  0  0  0  0  0  0
   -6.5790    8.5238    2.0024 O   0  0  0  0  0  0  0  0  0  0  0  0
   -4.8607    6.9353    2.1221 N   0  0  0  0  0  0  0  0  0  0  0  0
   -6.3098    2.1808   -0.0917 H   0  0  0  0  0  0  0  0  0  0  0  0
   -6.2899    2.4116    1.6742 H   0  0  0  0  0  0  0  0  0  0  0  0
   -6.6047    0.8052    0.9712 H   0  0  0  0  0  0  0  0  0  0  0  0
   -4.0242    3.0555   -0.4285 H   0  0  0  0  0  0  0  0  0  0  0  0
   -0.7248    0.7669    1.1256 H   0  0  0  0  0  0  0  0  0  0  0  0
   -2.3035   -0.6483    2.3957 H   0  0  0  0  0  0  0  0  0  0  0  0
   -4.7343   -0.2210    2.2784 H   0  0  0  0  0  0  0  0  0  0  0  0
   -0.6440    2.3851   -0.9870 H   0  0  0  0  0  0  0  0  0  0  0  0
   -2.7765    5.0184    2.3075 H   0  0  0  0  0  0  0  0  0  0  0  0
   -3.3849    7.6024   -1.9755 H   0  0  0  0  0  0  0  0  0  0  0  0
   -1.5623    5.9066   -1.7719 H   0  0  0  0  0  0  0  0  0  0  0  0
   -5.5053    8.7473   -0.4550 H   0  0  0  0  0  0  0  0  0  0  0  0
   -4.9997    6.6210    3.0689 H   0  0  0  0  0  0  0  0  0  0  0  0
  1  2  1  0  0  0  0
  1 22  1  0  0  0  0
  1 23  1  0  0  0  0
  1 24  1  0  0  0  0
  2  3  2  0  0  0  0
  2  7  1  0  0  0  0
  3  4  1  0  0  0  0
  3 25  1  0  0  0  0
  4  5  2  0  0  0  0
  4  8  1  0  0  0  0
  5  6  1  0  0  0  0
  5 26  1  0  0  0  0
  6  7  2  0  0  0  0
  6 27  1  0  0  0  0
  7 28  1  0  0  0  0
  8  9  1  0  0  0  0
  8 29  1  0  0  0  0
  9 10  2  0  0  0  0
  9 11  2  0  0  0  0
  9 12  1  0  0  0  0
 12 13  2  0  0  0  0
 12 17  1  0  0  0  0
 13 14  1  0  0  0  0
 13 30  1  0  0  0  0
 14 15  2  0  0  0  0
 14 21  1  0  0  0  0
 15 16  1  0  0  0  0
 15 18  1  0  0  0  0
 16 17  2  0  0  0  0
 16 31  1  0  0  0  0
 17 32  1  0  0  0  0
 18 19  1  0  0  0  0
 18 33  1  0  0  0  0
 19 20  2  0  0  0  0
 19 21  1  0  0  0  0
 21 34  1  0  0  0  0
M  END
