
 OpenBabel10072620003D

 28 28  0  0  1  0  0  0  0  0999 V2000
   -1.6526    0.9921   -0.1399 C   0  0  0  0  0  0  0  0  0  0  0  0
   -0.1888    1.0592   -0.5550 C   0  0  0  0  0  0  0  0  0  0  0  0
    0.6039   -0.3012    0.2876 S   0  0  0  0  0  0  0  0  0  0  0  0
    1.1409   -1.2081   -0.7092 O   0  0  0  0  0  0  0  0  0  0  0  0
    1.3955    0.2120    1.3834 O   0  0  0  0  0  0  0  0  0  0  0  0
   -0.8769   -1.0385    0.9484 C   0  0  0  0  0  0  0  0  0  0  0  0
   -2.0005   -0.4906    0.0700 C   0  0  3  0  0  0  0  0  0  0  0  0
   -2.1144   -1.2408   -1.1917 N   0  0  0  0  0  0  0  0  0  0  0  0
   -3.1916   -1.2618   -2.0574 C   0  0  0  0  0  0  0  0  0  0  0  0
   -4.5904   -0.3741   -1.8587 S   0  0  0  0  0  0  0  0  0  0  0  0
   -2.9469   -2.1189   -3.1111 N   0  0  0  0  0  0  0  0  0  0  0  0
   -3.8384   -2.3903   -4.2455 C   0  0  0  0  0  0  0  0  0  0  0  0
   -3.6232   -1.3873   -5.3776 C   0  0  0  0  0  0  0  0  0  0  0  0
   -2.2750   -1.4585   -5.8396 O   0  0  0  0  0  0  0  0  0  0  0  0
   -2.2859    1.4953   -0.8748 H   0  0  0  0  0  0  0  0  0  0  0  0
   -1.7779    1.5214    0.8141 H   0  0  0  0  0  0  0  0  0  0  0  0
    0.2762    2.0007   -0.2535 H   0  0  0  0  0  0  0  0  0  0  0  0
   -0.0741    0.9105   -1.6322 H   0  0  0  0  0  0  0  0  0  0  0  0
   -0.9898   -0.6870    1.9788 H   0  0  0  0  0  0  0  0  0  0  0  0
   -0.7873   -2.1272    0.9327 H   0  0  0  0  0  0  0  0  0  0  0  0
   -2.9560   -0.5896    0.5935 H   0  0  0  0  0  0  0  0  0  0  0  0
   -1.3011   -1.7706   -1.4810 H   0  0  0  0  0  0  0  0  0  0  0  0
   -2.1332   -2.7144   -3.0573 H   0  0  0  0  0  0  0  0  0  0  0  0
   -4.8812   -2.3892   -3.9163 H   0  0  0  0  0  0  0  0  0  0  0  0
   -3.5901   -3.4000   -4.5904 H   0  0  0  0  0  0  0  0  0  0  0  0
   -3.8189   -0.3592   -5.0585 H   0  0  0  0  0  0  0  0  0  0  0  0
   -4.2790   -1.6203   -6.2213 H   0  0  0  0  0  0  0  0  0  0  0  0
   -1.7168   -1.2155   -5.0783 H   0  0  0  0  0  0  0  0  0  0  0  0
  1  2  1  0  0  0  0
  1  7  1  0  0  0  0
  1 15  1  0  0  0  0
  1 16  1  0  0  0  0
  2  3  1  0  0  0  0
  2 17  1  0  0  0  0
  2 18  1  0  0  0  0
  3  4  2  0  0  0  0
  3  5  2  0  0  0  0
  3  6  1  0  0  0  0
  6  7  1  0  0  0  0
  6 19  1  0  0  0  0
  6 20  1  0  0  0  0
  7  8  1  0  0  0  0
  7 21  1  0  0  0  0
  8  9  1  0  0  0  0
  8 22  1  0  0  0  0
  9 10  2  0  0  0  0
  9 11  1  0  0  0  0
 11 12  1  0  0  0  0
 11 23  1  0  0  0  0
 12 13  1  0  0  0  0
 12 24  1  0  0  0  0
 12 25  1  0  0  0  0
 13 14  1  0  0  0  0
 13 26  1  0  0  0  0
 13 27  1  0  0  0  0
 14 28  1  0  0  0  0
M  END
