
 OpenBabel10072616273D

 17 17  0  0  1  0  0  0  0  0999 V2000
   -0.5789   -1.4213    0.1523 C   0  0  3  0  0  0  0  0  0  0  0  0
   -1.1284    0.0176    0.1415 C   0  0  0  0  0  0  0  0  0  0  0  0
   -2.2916    0.3452    0.3295 O   0  0  0  0  0  0  0  0  0  0  0  0
   -0.0890    0.8693   -0.0685 N   0  0  0  0  0  0  0  0  0  0  0  0
    1.0824    0.1900   -0.0706 C   0  0  0  0  0  0  0  0  0  0  0  0
    2.1902    0.6820   -0.1843 O   0  0  0  0  0  0  0  0  0  0  0  0
    0.8190   -1.1454    0.0899 N   0  0  0  0  0  0  0  0  0  0  0  0
   -0.9616   -2.1226    1.3413 N   0  0  0  0  0  0  0  0  0  0  0  0
   -0.7078   -3.4546    1.4282 C   0  0  0  0  0  0  0  0  0  0  0  0
   -0.0498   -4.1026    0.6295 O   0  0  0  0  0  0  0  0  0  0  0  0
   -1.2696   -4.0161    2.5261 N   0  0  0  0  0  0  0  0  0  0  0  0
   -0.8922   -1.9535   -0.7515 H   0  0  0  0  0  0  0  0  0  0  0  0
   -0.1556    1.8718   -0.0980 H   0  0  0  0  0  0  0  0  0  0  0  0
    1.5364   -1.8572    0.0736 H   0  0  0  0  0  0  0  0  0  0  0  0
   -1.8531   -1.8496    1.7335 H   0  0  0  0  0  0  0  0  0  0  0  0
   -1.2903   -3.4545    3.3658 H   0  0  0  0  0  0  0  0  0  0  0  0
   -0.9915   -4.9794    2.6722 H   0  0  0  0  0  0  0  0  0  0  0  0
  1  2  1  0  0  0  0
  1  7  1  0  0  0  0
  1  8  1  0  0  0  0
  1 12  1  0  0  0  0
  2  3  2  0  0  0  0
  2  4  1  0  0  0  0
  4  5  1  0  0  0  0
  4 13  1  0  0  0  0
  5  6  2  0  0  0  0
  5  7  1  0  0  0  0
  7 14  1  0  0  0  0
  8  9  1  0  0  0  0
  8 15  1  0  0  0  0
  9 10  2  0  0  0  0
  9 11  1  0  0  0  0
 11 16  1  0  0  0  0
 11 17  1  0  0  0  0
M  END
