
 OpenBabel10072619483D

 33 33  0  0  0  0  0  0  0  0999 V2000
    5.6729    0.0373   -3.5579 C   0  0  0  0  0  0  0  0  0  0  0  0
    6.1399    0.4534   -2.1891 C   0  0  0  0  0  0  0  0  0  0  0  0
    6.2606    1.7520   -1.8571 C   0  0  0  0  0  0  0  0  0  0  0  0
    6.5308   -0.6559   -1.2368 C   0  0  0  0  0  0  0  0  0  0  0  0
    5.0416   -1.4873   -0.6022 S   0  0  0  0  0  0  0  0  0  0  0  0
    5.7889   -2.8477    0.2724 C   0  0  0  0  0  0  0  0  0  0  0  0
    7.0788   -2.7382    0.6687 N   0  0  0  0  0  0  0  0  0  0  0  0
    7.6124   -3.7845    1.3479 C   0  0  0  0  0  0  0  0  0  0  0  0
    6.8996   -4.9277    1.6568 C   0  0  0  0  0  0  0  0  0  0  0  0
    5.5790   -5.0368    1.2367 C   0  0  0  0  0  0  0  0  0  0  0  0
    5.0120   -3.9727    0.5390 C   0  0  0  0  0  0  0  0  0  0  0  0
    7.7049   -6.2226    2.5308 S   0  0  0  0  0  0  0  0  0  0  0  0
    6.8136   -7.3646    2.5783 O   0  0  0  0  0  0  0  0  0  0  0  0
    9.0401   -6.3390    1.9890 O   0  0  0  0  0  0  0  0  0  0  0  0
    7.8204   -5.5996    4.1208 N   0  0  0  0  0  0  0  0  0  0  0  0
    6.5252   -5.3922    4.8102 C   0  0  0  0  0  0  0  0  0  0  0  0
    8.7641   -6.3652    4.9696 C   0  0  0  0  0  0  0  0  0  0  0  0
    5.5554    0.8924   -4.2322 H   0  0  0  0  0  0  0  0  0  0  0  0
    4.7071   -0.4745   -3.5027 H   0  0  0  0  0  0  0  0  0  0  0  0
    6.3992   -0.6407   -4.0175 H   0  0  0  0  0  0  0  0  0  0  0  0
    6.0036    2.5449   -2.5531 H   0  0  0  0  0  0  0  0  0  0  0  0
    6.6130    2.0544   -0.8754 H   0  0  0  0  0  0  0  0  0  0  0  0
    7.0981   -0.2532   -0.3900 H   0  0  0  0  0  0  0  0  0  0  0  0
    7.1733   -1.3732   -1.7611 H   0  0  0  0  0  0  0  0  0  0  0  0
    8.6525   -3.6637    1.6405 H   0  0  0  0  0  0  0  0  0  0  0  0
    4.9937   -5.9290    1.4428 H   0  0  0  0  0  0  0  0  0  0  0  0
    3.9798   -4.0295    0.2058 H   0  0  0  0  0  0  0  0  0  0  0  0
    5.8859   -4.7106    4.2440 H   0  0  0  0  0  0  0  0  0  0  0  0
    6.6942   -4.9284    5.7876 H   0  0  0  0  0  0  0  0  0  0  0  0
    6.0031   -6.3411    4.9651 H   0  0  0  0  0  0  0  0  0  0  0  0
    9.7589   -6.3887    4.5156 H   0  0  0  0  0  0  0  0  0  0  0  0
    8.4077   -7.3875    5.1279 H   0  0  0  0  0  0  0  0  0  0  0  0
    8.8702   -5.8771    5.9440 H   0  0  0  0  0  0  0  0  0  0  0  0
  1  2  1  0  0  0  0
  1 18  1  0  0  0  0
  1 19  1  0  0  0  0
  1 20  1  0  0  0  0
  2  3  2  0  0  0  0
  2  4  1  0  0  0  0
  3 21  1  0  0  0  0
  3 22  1  0  0  0  0
  4  5  1  0  0  0  0
  4 23  1  0  0  0  0
  4 24  1  0  0  0  0
  5  6  1  0  0  0  0
  6  7  2  0  0  0  0
  6 11  1  0  0  0  0
  7  8  1  0  0  0  0
  8  9  2  0  0  0  0
  8 25  1  0  0  0  0
  9 10  1  0  0  0  0
  9 12  1  0  0  0  0
 10 11  2  0  0  0  0
 10 26  1  0  0  0  0
 11 27  1  0  0  0  0
 12 13  2  0  0  0  0
 12 14  2  0  0  0  0
 12 15  1  0  0  0  0
 15 16  1  0  0  0  0
 15 17  1  0  0  0  0
 16 28  1  0  0  0  0
 16 29  1  0  0  0  0
 16 30  1  0  0  0  0
 17 31  1  0  0  0  0
 17 32  1  0  0  0  0
 17 33  1  0  0  0  0
M  END
