
 OpenBabel10072620063D

 60 62  0  0  0  0  0  0  0  0999 V2000
    6.0023    3.9977   -5.9889 C   0  0  0  0  0  0  0  0  0  0  0  0
    5.0320    2.8328   -6.1894 C   0  0  0  0  0  0  0  0  0  0  0  0
    5.3941    2.0329   -7.4428 C   0  0  0  0  0  0  0  0  0  0  0  0
    4.9836    1.8934   -4.9715 C   0  0  0  0  0  0  0  0  0  0  0  0
    4.5475    2.5833   -3.7247 N   0  0  0  0  0  0  0  0  0  0  0  0
    3.2282    3.2797   -3.7573 C   0  0  0  0  0  0  0  0  0  0  0  0
    2.0253    2.4172   -4.1869 C   0  0  0  0  0  0  0  0  0  0  0  0
    1.5863    1.4636   -3.0740 C   0  0  0  0  0  0  0  0  0  0  0  0
    0.8581    3.3365   -4.5738 C   0  0  0  0  0  0  0  0  0  0  0  0
    4.9694    1.8053   -2.2615 S   0  0  0  0  0  0  0  0  0  0  0  0
    4.4707    2.5832   -1.1490 O   0  0  0  0  0  0  0  0  0  0  0  0
    4.6555    0.3986   -2.4101 O   0  0  0  0  0  0  0  0  0  0  0  0
    6.7406    1.9574   -2.2339 C   0  0  0  0  0  0  0  0  0  0  0  0
    7.3127    3.2286   -2.2872 C   0  0  0  0  0  0  0  0  0  0  0  0
    8.7037    3.3573   -2.2822 C   0  0  0  0  0  0  0  0  0  0  0  0
    9.5298    2.2237   -2.2046 C   0  0  0  0  0  0  0  0  0  0  0  0
    8.9335    0.9528   -2.1601 C   0  0  0  0  0  0  0  0  0  0  0  0
    7.5436    0.8170   -2.1741 C   0  0  0  0  0  0  0  0  0  0  0  0
   11.0387    2.3402   -2.2329 C   0  0  0  0  0  0  0  0  0  0  0  0
   11.6067    3.3782   -1.2572 C   0  0  0  0  0  0  0  0  0  0  0  0
   13.0586    3.3543   -1.2327 N   0  0  0  0  0  0  0  0  0  0  0  0
   13.8031    2.7211   -0.2780 C   0  0  0  0  0  0  0  0  0  0  0  0
   13.4382    2.0952    0.6985 O   0  0  0  0  0  0  0  0  0  0  0  0
   15.2000    2.9099   -0.6414 C   0  0  0  0  0  0  0  0  0  0  0  0
   15.2368    3.6286   -1.8119 C   0  0  0  0  0  0  0  0  0  0  0  0
   13.8497    3.9142   -2.2051 C   0  0  0  0  0  0  0  0  0  0  0  0
   13.4907    4.5143   -3.2013 O   0  0  0  0  0  0  0  0  0  0  0  0
   16.3489    3.9884   -2.4780 N   0  0  0  0  0  0  0  0  0  0  0  0
   17.4989    3.5779   -1.8884 C   0  0  0  0  0  0  0  0  0  0  0  0
   17.5589    2.8442   -0.6939 C   0  0  0  0  0  0  0  0  0  0  0  0
   16.3712    2.4977   -0.0445 C   0  0  0  0  0  0  0  0  0  0  0  0
    5.9377    4.6987   -6.8266 H   0  0  0  0  0  0  0  0  0  0  0  0
    7.0395    3.6614   -5.9189 H   0  0  0  0  0  0  0  0  0  0  0  0
    5.7735    4.5645   -5.0814 H   0  0  0  0  0  0  0  0  0  0  0  0
    4.0382    3.2583   -6.3567 H   0  0  0  0  0  0  0  0  0  0  0  0
    6.3399    1.4957   -7.3139 H   0  0  0  0  0  0  0  0  0  0  0  0
    5.4877    2.6816   -8.3205 H   0  0  0  0  0  0  0  0  0  0  0  0
    4.6141    1.2944   -7.6595 H   0  0  0  0  0  0  0  0  0  0  0  0
    5.9853    1.4722   -4.8260 H   0  0  0  0  0  0  0  0  0  0  0  0
    4.3111    1.0511   -5.1710 H   0  0  0  0  0  0  0  0  0  0  0  0
    3.3303    4.1302   -4.4422 H   0  0  0  0  0  0  0  0  0  0  0  0
    3.0236    3.7502   -2.7868 H   0  0  0  0  0  0  0  0  0  0  0  0
    2.2595    1.8232   -5.0789 H   0  0  0  0  0  0  0  0  0  0  0  0
    0.6019    1.0290   -3.2803 H   0  0  0  0  0  0  0  0  0  0  0  0
    1.5398    1.9801   -2.1089 H   0  0  0  0  0  0  0  0  0  0  0  0
    2.2879    0.6319   -2.9906 H   0  0  0  0  0  0  0  0  0  0  0  0
    0.5719    3.9884   -3.7419 H   0  0  0  0  0  0  0  0  0  0  0  0
   -0.0194    2.7523   -4.8715 H   0  0  0  0  0  0  0  0  0  0  0  0
    1.1292    3.9711   -5.4254 H   0  0  0  0  0  0  0  0  0  0  0  0
    6.6825    4.1138   -2.3373 H   0  0  0  0  0  0  0  0  0  0  0  0
    9.1322    4.3556   -2.3403 H   0  0  0  0  0  0  0  0  0  0  0  0
    9.5473    0.0541   -2.1137 H   0  0  0  0  0  0  0  0  0  0  0  0
    7.1003   -0.1752   -2.1329 H   0  0  0  0  0  0  0  0  0  0  0  0
   11.3508    2.5723   -3.2598 H   0  0  0  0  0  0  0  0  0  0  0  0
   11.4833    1.3643   -1.9961 H   0  0  0  0  0  0  0  0  0  0  0  0
   11.2344    3.1887   -0.2441 H   0  0  0  0  0  0  0  0  0  0  0  0
   11.2999    4.3885   -1.5488 H   0  0  0  0  0  0  0  0  0  0  0  0
   18.4104    3.8586   -2.4127 H   0  0  0  0  0  0  0  0  0  0  0  0
   18.5215    2.5505   -0.2840 H   0  0  0  0  0  0  0  0  0  0  0  0
   16.3678    1.9315    0.8812 H   0  0  0  0  0  0  0  0  0  0  0  0
  1  2  1  0  0  0  0
  1 32  1  0  0  0  0
  1 33  1  0  0  0  0
  1 34  1  0  0  0  0
  2  3  1  0  0  0  0
  2  4  1  0  0  0  0
  2 35  1  0  0  0  0
  3 36  1  0  0  0  0
  3 37  1  0  0  0  0
  3 38  1  0  0  0  0
  4  5  1  0  0  0  0
  4 39  1  0  0  0  0
  4 40  1  0  0  0  0
  5  6  1  0  0  0  0
  5 10  1  0  0  0  0
  6  7  1  0  0  0  0
  6 41  1  0  0  0  0
  6 42  1  0  0  0  0
  7  8  1  0  0  0  0
  7  9  1  0  0  0  0
  7 43  1  0  0  0  0
  8 44  1  0  0  0  0
  8 45  1  0  0  0  0
  8 46  1  0  0  0  0
  9 47  1  0  0  0  0
  9 48  1  0  0  0  0
  9 49  1  0  0  0  0
 10 11  2  0  0  0  0
 10 12  2  0  0  0  0
 10 13  1  0  0  0  0
 13 14  2  0  0  0  0
 13 18  1  0  0  0  0
 14 15  1  0  0  0  0
 14 50  1  0  0  0  0
 15 16  2  0  0  0  0
 15 51  1  0  0  0  0
 16 17  1  0  0  0  0
 16 19  1  0  0  0  0
 17 18  2  0  0  0  0
 17 52  1  0  0  0  0
 18 53  1  0  0  0  0
 19 20  1  0  0  0  0
 19 54  1  0  0  0  0
 19 55  1  0  0  0  0
 20 21  1  0  0  0  0
 20 56  1  0  0  0  0
 20 57  1  0  0  0  0
 21 22  1  0  0  0  0
 21 26  1  0  0  0  0
 22 23  2  0  0  0  0
 22 24  1  0  0  0  0
 24 25  2  0  0  0  0
 24 31  1  0  0  0  0
 25 26  1  0  0  0  0
 25 28  1  0  0  0  0
 26 27  2  0  0  0  0
 28 29  2  0  0  0  0
 29 30  1  0  0  0  0
 29 58  1  0  0  0  0
 30 31  2  0  0  0  0
 30 59  1  0  0  0  0
 31 60  1  0  0  0  0
M  END
