
 OpenBabel10072619583D

 94103  0  0  1  0  0  0  0  0999 V2000
    3.5062   -1.0874   -4.6744 C   0  0  0  0  0  0  0  0  0  0  0  0
    3.7665   -0.7446   -3.2538 C   0  0  0  0  0  0  0  0  0  0  0  0
    4.0180    0.5406   -2.7911 C   0  0  0  0  0  0  0  0  0  0  0  0
    4.2699    0.5123   -1.4357 N   0  0  0  0  0  0  0  0  0  0  0  0
    4.2116   -0.7820   -0.9652 C   0  0  0  0  0  0  0  0  0  0  0  0
    4.4342   -1.3535    0.2883 C   0  0  0  0  0  0  0  0  0  0  0  0
    4.2959   -2.7340    0.4303 C   0  0  0  0  0  0  0  0  0  0  0  0
    3.9140   -3.4625   -0.6973 C   0  0  0  0  0  0  0  0  0  0  0  0
    3.6811   -2.9077   -1.9823 C   0  0  0  0  0  0  0  0  0  0  0  0
    3.8719   -1.5048   -2.0861 C   0  0  0  0  0  0  0  0  0  0  0  0
    3.2847   -3.9190   -3.0036 C   0  0  1  0  0  0  0  0  0  0  0  0
    3.4670   -5.2281   -2.1970 C   0  0  0  0  0  0  0  0  0  0  0  0
    3.6779   -4.8570   -0.7800 N   0  0  0  0  0  0  0  0  0  0  0  0
    3.7672   -5.7705    0.2740 C   0  0  0  0  0  0  0  0  0  0  0  0
    4.2227   -5.4696    1.3784 O   0  0  0  0  0  0  0  0  0  0  0  0
    3.3552   -7.1542    0.0574 C   0  0  0  0  0  0  0  0  0  0  0  0
    2.3581   -7.7701   -0.6867 C   0  0  0  0  0  0  0  0  0  0  0  0
    2.4035   -9.1752   -0.4460 C   0  0  0  0  0  0  0  0  0  0  0  0
    3.3712   -9.3743    0.5338 C   0  0  0  0  0  0  0  0  0  0  0  0
    3.9321   -8.1560    0.8113 N   0  0  0  0  0  0  0  0  0  0  0  0
    3.6280  -10.6176    1.0970 C   0  0  0  0  0  0  0  0  0  0  0  0
    2.9015  -11.6993    0.5895 C   0  0  0  0  0  0  0  0  0  0  0  0
    1.9363  -11.5672   -0.4187 C   0  0  0  0  0  0  0  0  0  0  0  0
    1.6791  -10.2877   -0.9369 C   0  0  0  0  0  0  0  0  0  0  0  0
    1.2356  -12.6914   -0.9541 N   0  0  0  0  0  0  0  0  0  0  0  0
    1.1194  -13.9194   -0.3164 C   0  0  0  0  0  0  0  0  0  0  0  0
    1.4808  -14.1043    0.8504 O   0  0  0  0  0  0  0  0  0  0  0  0
    0.5133  -14.8994   -1.1060 N   0  0  0  0  0  0  0  0  0  0  0  0
    0.1602  -16.1856   -0.6083 C   0  0  0  0  0  0  0  0  0  0  0  0
    0.8734  -16.7547    0.4393 C   0  0  0  0  0  0  0  0  0  0  0  0
    0.4606  -17.9551    1.0104 C   0  0  0  0  0  0  0  0  0  0  0  0
   -0.6444  -18.6329    0.5052 C   0  0  0  0  0  0  0  0  0  0  0  0
   -1.3643  -18.1348   -0.5963 C   0  0  0  0  0  0  0  0  0  0  0  0
   -0.9349  -16.8927   -1.1348 C   0  0  0  0  0  0  0  0  0  0  0  0
   -0.8178  -19.7326    1.3292 N   0  0  0  0  0  0  0  0  0  0  0  0
    0.1768  -19.7783    2.3018 C   0  0  0  0  0  0  0  0  0  0  0  0
    0.9494  -18.6562    2.1211 C   0  0  0  0  0  0  0  0  0  0  0  0
    0.1914  -20.7897    3.3503 C   0  0  0  0  0  0  0  0  0  0  0  0
   -0.8821  -21.2542    3.7163 O   0  0  0  0  0  0  0  0  0  0  0  0
    1.4308  -21.1496    3.9094 N   0  0  0  0  0  0  0  0  0  0  0  0
    2.7554  -20.8759    3.2959 C   0  0  0  0  0  0  0  0  0  0  0  0
    3.8567  -21.3177    4.2954 C   0  0  2  0  0  0  0  0  0  0  0  0
    3.0212  -21.9998    5.3332 C   0  0  0  0  0  0  0  0  0  0  0  0
    3.3871  -22.7103    6.5100 C   0  0  0  0  0  0  0  0  0  0  0  0
    4.6866  -23.0193    6.9292 C   0  0  0  0  0  0  0  0  0  0  0  0
    4.4621  -23.6862    8.1285 C   0  0  0  0  0  0  0  0  0  0  0  0
    3.1094  -23.7619    8.3781 N   0  0  0  0  0  0  0  0  0  0  0  0
    2.4000  -23.1839    7.3467 C   0  0  0  0  0  0  0  0  0  0  0  0
    1.0333  -23.0621    7.0879 C   0  0  0  0  0  0  0  0  0  0  0  0
    0.6251  -22.4173    5.9226 C   0  0  0  0  0  0  0  0  0  0  0  0
    1.6207  -21.9043    5.0912 C   0  0  0  0  0  0  0  0  0  0  0  0
    0.0541  -23.5464    7.9242 O   0  0  0  0  0  0  0  0  0  0  0  0
    6.0392  -22.8076    6.3533 C   0  0  0  0  0  0  0  0  0  0  0  0
    4.5772  -20.0771    4.8364 C   0  0  0  0  0  0  0  0  0  0  0  0
    5.4274  -19.1890    3.5338 Cl  0  0  0  0  0  0  0  0  0  0  0  0
    1.8167   -3.8107   -3.4149 C   0  0  0  0  0  0  0  0  0  0  0  0
    1.4088   -5.0565   -4.6366 Cl  0  0  0  0  0  0  0  0  0  0  0  0
    4.7848   -0.6267    1.4026 O   0  0  0  0  0  0  0  0  0  0  0  0
    3.8982   -0.3037   -5.3320 H   0  0  0  0  0  0  0  0  0  0  0  0
    2.4328   -1.1658   -4.8708 H   0  0  0  0  0  0  0  0  0  0  0  0
    3.9988   -2.0183   -4.9648 H   0  0  0  0  0  0  0  0  0  0  0  0
    4.0657    1.4801   -3.3234 H   0  0  0  0  0  0  0  0  0  0  0  0
    4.5087    1.3186   -0.8810 H   0  0  0  0  0  0  0  0  0  0  0  0
    4.4994   -3.1947    1.3906 H   0  0  0  0  0  0  0  0  0  0  0  0
    3.9650   -3.8985   -3.8663 H   0  0  0  0  0  0  0  0  0  0  0  0
    4.3519   -5.7828   -2.5198 H   0  0  0  0  0  0  0  0  0  0  0  0
    2.5855   -5.8599   -2.2857 H   0  0  0  0  0  0  0  0  0  0  0  0
    1.6264   -7.2979   -1.3300 H   0  0  0  0  0  0  0  0  0  0  0  0
    4.6404   -7.9836    1.5138 H   0  0  0  0  0  0  0  0  0  0  0  0
    4.3678  -10.7647    1.8803 H   0  0  0  0  0  0  0  0  0  0  0  0
    3.1452  -12.6678    1.0092 H   0  0  0  0  0  0  0  0  0  0  0  0
    0.9226  -10.1277   -1.6985 H   0  0  0  0  0  0  0  0  0  0  0  0
    0.5908  -12.5023   -1.7084 H   0  0  0  0  0  0  0  0  0  0  0  0
    0.1212  -14.6200   -1.9937 H   0  0  0  0  0  0  0  0  0  0  0  0
    1.7568  -16.2919    0.8617 H   0  0  0  0  0  0  0  0  0  0  0  0
   -2.2429  -18.6523   -0.9924 H   0  0  0  0  0  0  0  0  0  0  0  0
   -1.5145  -16.4612   -1.9484 H   0  0  0  0  0  0  0  0  0  0  0  0
   -1.6069  -20.3727    1.3146 H   0  0  0  0  0  0  0  0  0  0  0  0
    1.7495  -18.2918    2.7545 H   0  0  0  0  0  0  0  0  0  0  0  0
    2.8408  -19.8110    3.0894 H   0  0  0  0  0  0  0  0  0  0  0  0
    2.8090  -21.4419    2.3635 H   0  0  0  0  0  0  0  0  0  0  0  0
    4.5575  -22.0288    3.8259 H   0  0  0  0  0  0  0  0  0  0  0  0
    5.1605  -24.1395    8.8189 H   0  0  0  0  0  0  0  0  0  0  0  0
    2.6974  -24.2274    9.1715 H   0  0  0  0  0  0  0  0  0  0  0  0
   -0.4326  -22.3489    5.6906 H   0  0  0  0  0  0  0  0  0  0  0  0
    0.4802  -23.9545    8.6905 H   0  0  0  0  0  0  0  0  0  0  0  0
    6.0271  -22.5822    5.2871 H   0  0  0  0  0  0  0  0  0  0  0  0
    6.6375  -23.7182    6.4709 H   0  0  0  0  0  0  0  0  0  0  0  0
    6.5558  -21.9970    6.8794 H   0  0  0  0  0  0  0  0  0  0  0  0
    5.3464  -20.3157    5.5707 H   0  0  0  0  0  0  0  0  0  0  0  0
    3.8797  -19.3703    5.3038 H   0  0  0  0  0  0  0  0  0  0  0  0
    1.5649   -2.8529   -3.8643 H   0  0  0  0  0  0  0  0  0  0  0  0
    1.1399   -3.9622   -2.5641 H   0  0  0  0  0  0  0  0  0  0  0  0
    4.8515    0.3050    1.1487 H   0  0  0  0  0  0  0  0  0  0  0  0
  1  2  1  0  0  0  0
  1 59  1  0  0  0  0
  1 60  1  0  0  0  0
  1 61  1  0  0  0  0
  2  3  2  0  0  0  0
  2 10  1  0  0  0  0
  3  4  1  0  0  0  0
  3 62  1  0  0  0  0
  4  5  1  0  0  0  0
  4 63  1  0  0  0  0
  5  6  2  0  0  0  0
  5 10  1  0  0  0  0
  6  7  1  0  0  0  0
  6 58  1  0  0  0  0
  7  8  2  0  0  0  0
  7 64  1  0  0  0  0
  8  9  1  0  0  0  0
  8 13  1  0  0  0  0
  9 10  2  0  0  0  0
  9 11  1  0  0  0  0
 11 12  1  0  0  0  0
 11 56  1  0  0  0  0
 11 65  1  6  0  0  0
 12 13  1  0  0  0  0
 12 66  1  0  0  0  0
 12 67  1  0  0  0  0
 13 14  1  0  0  0  0
 14 15  2  0  0  0  0
 14 16  1  0  0  0  0
 16 17  2  0  0  0  0
 16 20  1  0  0  0  0
 17 18  1  0  0  0  0
 17 68  1  0  0  0  0
 18 19  2  0  0  0  0
 18 24  1  0  0  0  0
 19 20  1  0  0  0  0
 19 21  1  0  0  0  0
 20 69  1  0  0  0  0
 21 22  2  0  0  0  0
 21 70  1  0  0  0  0
 22 23  1  0  0  0  0
 22 71  1  0  0  0  0
 23 24  2  0  0  0  0
 23 25  1  0  0  0  0
 24 72  1  0  0  0  0
 25 26  1  0  0  0  0
 25 73  1  0  0  0  0
 26 27  2  0  0  0  0
 26 28  1  0  0  0  0
 28 29  1  0  0  0  0
 28 74  1  0  0  0  0
 29 30  2  0  0  0  0
 29 34  1  0  0  0  0
 30 31  1  0  0  0  0
 30 75  1  0  0  0  0
 31 32  2  0  0  0  0
 31 37  1  0  0  0  0
 32 33  1  0  0  0  0
 32 35  1  0  0  0  0
 33 34  2  0  0  0  0
 33 76  1  0  0  0  0
 34 77  1  0  0  0  0
 35 36  1  0  0  0  0
 35 78  1  0  0  0  0
 36 37  2  0  0  0  0
 36 38  1  0  0  0  0
 37 79  1  0  0  0  0
 38 39  2  0  0  0  0
 38 40  1  0  0  0  0
 40 41  1  0  0  0  0
 40 51  1  0  0  0  0
 41 42  1  0  0  0  0
 41 80  1  0  0  0  0
 41 81  1  0  0  0  0
 42 43  1  0  0  0  0
 42 54  1  0  0  0  0
 42 82  1  6  0  0  0
 43 44  2  0  0  0  0
 43 51  1  0  0  0  0
 44 45  1  0  0  0  0
 44 48  1  0  0  0  0
 45 46  2  0  0  0  0
 45 53  1  0  0  0  0
 46 47  1  0  0  0  0
 46 83  1  0  0  0  0
 47 48  1  0  0  0  0
 47 84  1  0  0  0  0
 48 49  2  0  0  0  0
 49 50  1  0  0  0  0
 49 52  1  0  0  0  0
 50 51  2  0  0  0  0
 50 85  1  0  0  0  0
 52 86  1  0  0  0  0
 53 87  1  0  0  0  0
 53 88  1  0  0  0  0
 53 89  1  0  0  0  0
 54 55  1  0  0  0  0
 54 90  1  0  0  0  0
 54 91  1  0  0  0  0
 56 57  1  0  0  0  0
 56 92  1  0  0  0  0
 56 93  1  0  0  0  0
 58 94  1  0  0  0  0
M  END
