
 OpenBabel10072619583D

 43 45  0  0  0  0  0  0  0  0999 V2000
    0.2661   -2.7586    2.0756 C   0  0  0  0  0  0  0  0  0  0  0  0
    0.0267   -2.2307    0.8080 C   0  0  0  0  0  0  0  0  0  0  0  0
   -1.2732   -1.8893    0.4185 C   0  0  0  0  0  0  0  0  0  0  0  0
   -2.3421   -2.0530    1.3111 C   0  0  0  0  0  0  0  0  0  0  0  0
   -2.0904   -2.5986    2.5794 C   0  0  0  0  0  0  0  0  0  0  0  0
   -0.7933   -2.9526    2.9581 C   0  0  0  0  0  0  0  0  0  0  0  0
   -3.7557   -1.7001    0.9730 C   0  0  0  0  0  0  0  0  0  0  0  0
   -4.6759   -2.0963    1.6852 O   0  0  0  0  0  0  0  0  0  0  0  0
   -3.9594   -0.8811   -0.1255 N   0  0  0  0  0  0  0  0  0  0  0  0
   -5.1454   -0.5718   -0.7587 C   0  0  0  0  0  0  0  0  0  0  0  0
   -5.0795    0.0520   -1.8155 O   0  0  0  0  0  0  0  0  0  0  0  0
   -6.2793   -1.0183   -0.1364 N   0  0  0  0  0  0  0  0  0  0  0  0
   -7.6128   -0.9161   -0.5728 C   0  0  0  0  0  0  0  0  0  0  0  0
   -7.9921   -0.3913   -1.8082 C   0  0  0  0  0  0  0  0  0  0  0  0
   -9.3449   -0.3337   -2.1834 C   0  0  0  0  0  0  0  0  0  0  0  0
  -10.3402   -0.8012   -1.3225 C   0  0  0  0  0  0  0  0  0  0  0  0
   -9.9573   -1.3037   -0.0676 C   0  0  0  0  0  0  0  0  0  0  0  0
   -8.6066   -1.3736    0.2942 C   0  0  0  0  0  0  0  0  0  0  0  0
  -11.7331   -0.7471   -1.6408 N   0  0  0  0  0  0  0  0  0  0  0  0
  -12.3965   -0.6463   -2.8471 C   0  0  0  0  0  0  0  0  0  0  0  0
  -13.7320   -0.4471   -2.5469 C   0  0  0  0  0  0  0  0  0  0  0  0
  -13.8325   -0.5395   -1.1438 C   0  0  0  0  0  0  0  0  0  0  0  0
  -12.6259   -0.7857   -0.6086 N   0  0  0  0  0  0  0  0  0  0  0  0
  -15.0889   -0.4272   -0.3173 C   0  0  0  0  0  0  0  0  0  0  0  0
  -16.1890   -0.2572   -1.1030 F   0  0  0  0  0  0  0  0  0  0  0  0
  -15.3229   -1.5349    0.4341 F   0  0  0  0  0  0  0  0  0  0  0  0
  -15.0578    0.6341    0.5307 F   0  0  0  0  0  0  0  0  0  0  0  0
  -11.7715   -0.8110   -4.1664 C   0  0  0  0  0  0  0  0  0  0  0  0
  -10.8189   -1.7721   -4.1909 F   0  0  0  0  0  0  0  0  0  0  0  0
  -12.6919   -1.1654   -5.1024 F   0  0  0  0  0  0  0  0  0  0  0  0
  -11.2096    0.3403   -4.6073 F   0  0  0  0  0  0  0  0  0  0  0  0
    1.2774   -3.0269    2.3734 H   0  0  0  0  0  0  0  0  0  0  0  0
    0.8554   -2.0920    0.1169 H   0  0  0  0  0  0  0  0  0  0  0  0
   -1.4123   -1.5202   -0.5923 H   0  0  0  0  0  0  0  0  0  0  0  0
   -2.9057   -2.7519    3.2846 H   0  0  0  0  0  0  0  0  0  0  0  0
   -0.6128   -3.3795    3.9417 H   0  0  0  0  0  0  0  0  0  0  0  0
   -3.1738   -0.5170   -0.6392 H   0  0  0  0  0  0  0  0  0  0  0  0
   -6.1216   -1.4602    0.7685 H   0  0  0  0  0  0  0  0  0  0  0  0
   -7.2566   -0.0120   -2.5115 H   0  0  0  0  0  0  0  0  0  0  0  0
   -9.5569    0.1282   -3.1400 H   0  0  0  0  0  0  0  0  0  0  0  0
  -10.6988   -1.6686    0.6412 H   0  0  0  0  0  0  0  0  0  0  0  0
   -8.3495   -1.7857    1.2676 H   0  0  0  0  0  0  0  0  0  0  0  0
  -14.5397   -0.3083   -3.2556 H   0  0  0  0  0  0  0  0  0  0  0  0
  1  2  2  0  0  0  0
  1  6  1  0  0  0  0
  1 32  1  0  0  0  0
  2  3  1  0  0  0  0
  2 33  1  0  0  0  0
  3  4  2  0  0  0  0
  3 34  1  0  0  0  0
  4  5  1  0  0  0  0
  4  7  1  0  0  0  0
  5  6  2  0  0  0  0
  5 35  1  0  0  0  0
  6 36  1  0  0  0  0
  7  8  2  0  0  0  0
  7  9  1  0  0  0  0
  9 10  1  0  0  0  0
  9 37  1  0  0  0  0
 10 11  2  0  0  0  0
 10 12  1  0  0  0  0
 12 13  1  0  0  0  0
 12 38  1  0  0  0  0
 13 14  2  0  0  0  0
 13 18  1  0  0  0  0
 14 15  1  0  0  0  0
 14 39  1  0  0  0  0
 15 16  2  0  0  0  0
 15 40  1  0  0  0  0
 16 17  1  0  0  0  0
 16 19  1  0  0  0  0
 17 18  2  0  0  0  0
 17 41  1  0  0  0  0
 18 42  1  0  0  0  0
 19 20  1  0  0  0  0
 19 23  1  0  0  0  0
 20 21  2  0  0  0  0
 20 28  1  0  0  0  0
 21 22  1  0  0  0  0
 21 43  1  0  0  0  0
 22 23  2  0  0  0  0
 22 24  1  0  0  0  0
 24 25  1  0  0  0  0
 24 26  1  0  0  0  0
 24 27  1  0  0  0  0
 28 29  1  0  0  0  0
 28 30  1  0  0  0  0
 28 31  1  0  0  0  0
M  END
