
 OpenBabel10072619553D

 30 31  0  0  0  0  0  0  0  0999 V2000
    1.1018   -0.3762    0.2890 C   0  0  0  0  0  0  0  0  0  0  0  0
    2.3994    0.0530   -0.1039 O   0  0  0  0  0  0  0  0  0  0  0  0
    3.0469    0.9189    0.7334 C   0  0  0  0  0  0  0  0  0  0  0  0
    2.5753    1.3778    1.9658 C   0  0  0  0  0  0  0  0  0  0  0  0
    3.3428    2.2674    2.7257 C   0  0  0  0  0  0  0  0  0  0  0  0
    4.5872    2.6903    2.2501 C   0  0  0  0  0  0  0  0  0  0  0  0
    5.0640    2.2450    1.0163 C   0  0  0  0  0  0  0  0  0  0  0  0
    4.2916    1.3560    0.2665 C   0  0  0  0  0  0  0  0  0  0  0  0
    5.5527    3.8384    3.2055 S   0  0  0  0  0  0  0  0  0  0  0  0
    6.4090    4.5590    2.2837 O   0  0  0  0  0  0  0  0  0  0  0  0
    4.6375    4.5639    4.0652 O   0  0  0  0  0  0  0  0  0  0  0  0
    6.4719    2.8750    4.1240 N   0  0  0  0  0  0  0  0  0  0  0  0
    7.3257    3.3528    4.9683 C   0  0  0  0  0  0  0  0  0  0  0  0
    8.1013    2.3555    5.7431 C   0  0  0  0  0  0  0  0  0  0  0  0
    9.0207    2.6919    6.6530 C   0  0  0  0  0  0  0  0  0  0  0  0
    9.3227    4.1212    6.9469 C   0  0  0  0  0  0  0  0  0  0  0  0
   10.1600    4.4448    7.7829 O   0  0  0  0  0  0  0  0  0  0  0  0
    8.5515    5.1357    6.1723 C   0  0  0  0  0  0  0  0  0  0  0  0
    7.6350    4.7746    5.2660 C   0  0  0  0  0  0  0  0  0  0  0  0
    8.9040    6.9445    6.5060 Br  0  0  0  0  0  0  0  0  0  0  0  0
    9.9650    1.3780    7.5929 Br  0  0  0  0  0  0  0  0  0  0  0  0
    0.7114   -1.0260   -0.5004 H   0  0  0  0  0  0  0  0  0  0  0  0
    0.4174    0.4727    0.3899 H   0  0  0  0  0  0  0  0  0  0  0  0
    1.1451   -0.9623    1.2128 H   0  0  0  0  0  0  0  0  0  0  0  0
    1.6150    1.0645    2.3633 H   0  0  0  0  0  0  0  0  0  0  0  0
    2.9635    2.6233    3.6814 H   0  0  0  0  0  0  0  0  0  0  0  0
    6.0244    2.5797    0.6314 H   0  0  0  0  0  0  0  0  0  0  0  0
    4.6574    1.0022   -0.6952 H   0  0  0  0  0  0  0  0  0  0  0  0
    7.8793    1.3140    5.5280 H   0  0  0  0  0  0  0  0  0  0  0  0
    7.0914    5.5391    4.7209 H   0  0  0  0  0  0  0  0  0  0  0  0
  1  2  1  0  0  0  0
  1 22  1  0  0  0  0
  1 23  1  0  0  0  0
  1 24  1  0  0  0  0
  2  3  1  0  0  0  0
  3  4  2  0  0  0  0
  3  8  1  0  0  0  0
  4  5  1  0  0  0  0
  4 25  1  0  0  0  0
  5  6  2  0  0  0  0
  5 26  1  0  0  0  0
  6  7  1  0  0  0  0
  6  9  1  0  0  0  0
  7  8  2  0  0  0  0
  7 27  1  0  0  0  0
  8 28  1  0  0  0  0
  9 10  2  0  0  0  0
  9 11  2  0  0  0  0
  9 12  1  0  0  0  0
 12 13  2  3  0  0  0
 13 14  1  0  0  0  0
 13 19  1  0  0  0  0
 14 15  2  0  0  0  0
 14 29  1  0  0  0  0
 15 16  1  0  0  0  0
 15 21  1  0  0  0  0
 16 17  2  0  0  0  0
 16 18  1  0  0  0  0
 18 19  2  0  0  0  0
 18 20  1  0  0  0  0
 19 30  1  0  0  0  0
M  END
