
 OpenBabel10072620003D

 30 30  0  0  0  0  0  0  0  0999 V2000
    1.3554    0.6133   -2.4346 C   0  0  0  0  0  0  0  0  0  0  0  0
    2.5633   -0.0179   -1.7623 C   0  0  0  0  0  0  0  0  0  0  0  0
    3.1547    0.9424   -0.7960 N   0  0  0  0  0  0  0  0  0  0  0  0
    2.5009    0.9683    0.5389 C   0  0  0  0  0  0  0  0  0  0  0  0
    2.9778   -0.1377    1.4641 C   0  0  0  0  0  0  0  0  0  0  0  0
    4.8537    1.0893   -0.8080 S   0  0  0  0  0  0  0  0  0  0  0  0
    5.2404    2.0289    0.2228 O   0  0  0  0  0  0  0  0  0  0  0  0
    5.4110   -0.2463   -0.8661 O   0  0  0  0  0  0  0  0  0  0  0  0
    5.1381    1.8935   -2.3676 C   0  0  0  0  0  0  0  0  0  0  0  0
    4.6418    3.1901   -2.5532 C   0  0  0  0  0  0  0  0  0  0  0  0
    4.8455    3.8395   -3.7712 C   0  0  0  0  0  0  0  0  0  0  0  0
    5.5468    3.1865   -4.7829 C   0  0  0  0  0  0  0  0  0  0  0  0
    6.0512    1.9008   -4.5960 C   0  0  0  0  0  0  0  0  0  0  0  0
    5.8506    1.2460   -3.3801 C   0  0  0  0  0  0  0  0  0  0  0  0
    5.7609    3.7808   -5.9914 O   0  0  0  0  0  0  0  0  0  0  0  0
    0.9750   -0.0423   -3.2233 H   0  0  0  0  0  0  0  0  0  0  0  0
    1.6148    1.5768   -2.8851 H   0  0  0  0  0  0  0  0  0  0  0  0
    0.5443    0.7850   -1.7206 H   0  0  0  0  0  0  0  0  0  0  0  0
    3.2841   -0.2859   -2.5415 H   0  0  0  0  0  0  0  0  0  0  0  0
    2.2798   -0.9482   -1.2593 H   0  0  0  0  0  0  0  0  0  0  0  0
    1.4155    0.8863    0.4126 H   0  0  0  0  0  0  0  0  0  0  0  0
    2.6708    1.9502    0.9969 H   0  0  0  0  0  0  0  0  0  0  0  0
    2.8481   -1.1255    1.0132 H   0  0  0  0  0  0  0  0  0  0  0  0
    2.4068   -0.1163    2.3972 H   0  0  0  0  0  0  0  0  0  0  0  0
    4.0335   -0.0203    1.7249 H   0  0  0  0  0  0  0  0  0  0  0  0
    4.1008    3.6897   -1.7519 H   0  0  0  0  0  0  0  0  0  0  0  0
    4.4555    4.8434   -3.9108 H   0  0  0  0  0  0  0  0  0  0  0  0
    6.6003    1.4127   -5.3973 H   0  0  0  0  0  0  0  0  0  0  0  0
    6.2470    0.2440   -3.2345 H   0  0  0  0  0  0  0  0  0  0  0  0
    5.3765    4.6732   -5.9744 H   0  0  0  0  0  0  0  0  0  0  0  0
  1  2  1  0  0  0  0
  1 16  1  0  0  0  0
  1 17  1  0  0  0  0
  1 18  1  0  0  0  0
  2  3  1  0  0  0  0
  2 19  1  0  0  0  0
  2 20  1  0  0  0  0
  3  4  1  0  0  0  0
  3  6  1  0  0  0  0
  4  5  1  0  0  0  0
  4 21  1  0  0  0  0
  4 22  1  0  0  0  0
  5 23  1  0  0  0  0
  5 24  1  0  0  0  0
  5 25  1  0  0  0  0
  6  7  2  0  0  0  0
  6  8  2  0  0  0  0
  6  9  1  0  0  0  0
  9 10  2  0  0  0  0
  9 14  1  0  0  0  0
 10 11  1  0  0  0  0
 10 26  1  0  0  0  0
 11 12  2  0  0  0  0
 11 27  1  0  0  0  0
 12 13  1  0  0  0  0
 12 15  1  0  0  0  0
 13 14  2  0  0  0  0
 13 28  1  0  0  0  0
 14 29  1  0  0  0  0
 15 30  1  0  0  0  0
M  END
