
 OpenBabel10072620103D

 48 49  0  0  1  0  0  0  0  0999 V2000
   -0.8674   -0.1011    0.8896 C   0  0  0  0  0  0  0  0  0  0  0  0
    0.5670   -0.3887    1.3080 C   0  0  2  0  0  0  0  0  0  0  0  0
    0.9968    0.5448    2.4550 C   0  0  0  0  0  0  0  0  0  0  0  0
    2.4646    0.3157    2.7880 N   0  3  3  0  0  0  0  0  0  0  0  0
    3.3138    0.4540    1.5270 C   0  0  0  0  0  0  0  0  0  0  0  0
    2.7767   -0.4865    0.4360 C   0  0  1  0  0  0  0  0  0  0  0  0
    1.4009   -0.1909    0.1576 O   0  0  0  0  0  0  0  0  0  0  0  0
    3.5566   -0.3092   -0.8575 C   0  0  0  0  0  0  0  0  0  0  0  0
    2.9910    1.1763    3.9160 C   0  0  0  0  0  0  0  0  0  0  0  0
    2.4514    0.7645    5.2837 C   0  0  0  0  0  0  0  0  0  0  0  0
    2.8086   -0.6710    5.5955 C   0  0  0  0  0  0  0  0  0  0  0  0
    2.9915   -1.4928    4.6956 O   0  0  0  0  0  0  0  0  0  0  0  0
    2.8644   -0.9547    6.9371 N   0  0  0  0  0  0  0  0  0  0  0  0
    3.0608   -2.2803    7.3643 N   0  0  0  0  0  0  0  0  0  0  0  0
    2.4081   -2.7594    8.5081 C   0  0  0  0  0  0  0  0  0  0  0  0
    1.3849   -1.7875    9.4142 S   0  0  0  0  0  0  0  0  0  0  0  0
    2.8215   -4.0563    8.7899 N   0  0  0  0  0  0  0  0  0  0  0  0
    2.3392   -4.9834    9.7458 C   0  0  0  0  0  0  0  0  0  0  0  0
    3.2423   -5.9492   10.2130 C   0  0  0  0  0  0  0  0  0  0  0  0
    2.8362   -6.9077   11.1464 C   0  0  0  0  0  0  0  0  0  0  0  0
    1.5209   -6.9242   11.5974 C   0  0  0  0  0  0  0  0  0  0  0  0
    0.6067   -5.9926   11.1205 C   0  0  0  0  0  0  0  0  0  0  0  0
    1.0146   -5.0258   10.1937 C   0  0  0  0  0  0  0  0  0  0  0  0
    1.1099   -7.8375   12.4896 F   0  0  0  0  0  0  0  0  0  0  0  0
    3.9791   -8.0627   11.7143 Cl  0  0  0  0  0  0  0  0  0  0  0  0
   -1.5604   -0.2468    1.7235 H   0  0  0  0  0  0  0  0  0  0  0  0
   -1.1639   -0.7605    0.0664 H   0  0  0  0  0  0  0  0  0  0  0  0
   -0.9686    0.9257    0.5210 H   0  0  0  0  0  0  0  0  0  0  0  0
    0.6405   -1.4377    1.6210 H   0  0  0  0  0  0  0  0  0  0  0  0
    0.4146    0.3481    3.3591 H   0  0  0  0  0  0  0  0  0  0  0  0
    0.9064    1.5991    2.1702 H   0  0  0  0  0  0  0  0  0  0  0  0
    2.5743   -0.6708    3.1047 H   0  0  0  0  0  0  0  0  0  0  0  0
    4.3435    0.1996    1.7963 H   0  0  0  0  0  0  0  0  0  0  0  0
    3.2513    1.5054    1.2230 H   0  0  0  0  0  0  0  0  0  0  0  0
    2.8574   -1.5323    0.7595 H   0  0  0  0  0  0  0  0  0  0  0  0
    3.4519    0.7106   -1.2447 H   0  0  0  0  0  0  0  0  0  0  0  0
    3.1640   -0.9806   -1.6283 H   0  0  0  0  0  0  0  0  0  0  0  0
    4.6197   -0.5238   -0.7142 H   0  0  0  0  0  0  0  0  0  0  0  0
    2.7394    2.2166    3.6803 H   0  0  0  0  0  0  0  0  0  0  0  0
    4.0815    1.0674    3.9101 H   0  0  0  0  0  0  0  0  0  0  0  0
    1.3642    0.8707    5.3379 H   0  0  0  0  0  0  0  0  0  0  0  0
    2.8868    1.4226    6.0440 H   0  0  0  0  0  0  0  0  0  0  0  0
    2.5143   -0.3143    7.6522 H   0  0  0  0  0  0  0  0  0  0  0  0
    3.3608   -2.9395    6.6496 H   0  0  0  0  0  0  0  0  0  0  0  0
    3.7452   -4.2694    8.4304 H   0  0  0  0  0  0  0  0  0  0  0  0
    4.2757   -5.9538    9.8743 H   0  0  0  0  0  0  0  0  0  0  0  0
   -0.4231   -6.0230   11.4657 H   0  0  0  0  0  0  0  0  0  0  0  0
    0.2613   -4.3415    9.8171 H   0  0  0  0  0  0  0  0  0  0  0  0
  1 26  1  0  0  0  0
  1 27  1  0  0  0  0
  1 28  1  0  0  0  0
  2  3  1  0  0  0  0
  2  7  1  0  0  0  0
  2  1  1  0  0  0  0
  2 29  1  1  0  0  0
  3  4  1  0  0  0  0
  3 30  1  0  0  0  0
  3 31  1  0  0  0  0
  4  5  1  0  0  0  0
  4  9  1  0  0  0  0
  4 32  1  0  0  0  0
  5  6  1  0  0  0  0
  5 33  1  0  0  0  0
  5 34  1  0  0  0  0
  6  7  1  0  0  0  0
  6  8  1  0  0  0  0
  6 35  1  1  0  0  0
  8 36  1  0  0  0  0
  8 37  1  0  0  0  0
  8 38  1  0  0  0  0
  9 10  1  0  0  0  0
  9 39  1  0  0  0  0
  9 40  1  0  0  0  0
 10 11  1  0  0  0  0
 10 41  1  0  0  0  0
 10 42  1  0  0  0  0
 11 12  2  0  0  0  0
 11 13  1  0  0  0  0
 13 14  1  0  0  0  0
 13 43  1  0  0  0  0
 14 15  1  0  0  0  0
 14 44  1  0  0  0  0
 15 16  2  0  0  0  0
 15 17  1  0  0  0  0
 17 18  1  0  0  0  0
 17 45  1  0  0  0  0
 18 19  2  0  0  0  0
 18 23  1  0  0  0  0
 19 20  1  0  0  0  0
 19 46  1  0  0  0  0
 20 21  2  0  0  0  0
 20 25  1  0  0  0  0
 21 22  1  0  0  0  0
 21 24  1  0  0  0  0
 22 23  2  0  0  0  0
 22 47  1  0  0  0  0
 23 48  1  0  0  0  0
M  CHG  1   4   1
M  END
