
 OpenBabel10072620173D

 81 83  0  0  1  0  0  0  0  0999 V2000
    9.6426    0.1010   -2.6622 C   0  0  0  0  0  0  0  0  0  0  0  0
    9.1542    1.2201   -1.7404 C   0  0  0  0  0  0  0  0  0  0  0  0
    9.6695    2.5784   -2.2282 C   0  0  0  0  0  0  0  0  0  0  0  0
    7.6213    1.2757   -1.6467 C   0  0  0  0  0  0  0  0  0  0  0  0
    6.9782    0.0085   -1.1325 N   0  0  0  0  0  0  0  0  0  0  0  0
    7.3830   -0.3428    0.3111 C   0  0  1  0  0  0  0  0  0  0  0  0
    6.8176    0.6545    1.3392 C   0  0  0  0  0  0  0  0  0  0  0  0
    7.0307    0.3373    2.8245 C   0  0  0  0  0  0  0  0  0  0  0  0
    8.4464   -0.0348    3.2628 C   0  0  0  0  0  0  0  0  0  0  0  0
    9.4672    1.0992    3.3096 C   0  0  0  0  0  0  0  0  0  0  0  0
   10.8672    0.6853    3.4538 N   0  0  0  0  0  0  0  0  0  0  0  0
   11.2976   -0.4769    4.0461 C   0  0  0  0  0  0  0  0  0  0  0  0
   10.5212   -1.3588    4.4038 O   0  0  0  0  0  0  0  0  0  0  0  0
   12.6655   -0.6231    4.2012 N   0  0  0  0  0  0  0  0  0  0  0  0
   13.1641   -1.8788    4.7765 C   0  0  0  0  0  0  0  0  0  0  0  0
   13.8814   -2.7628    3.7760 C   0  0  0  0  0  0  0  0  0  0  0  0
   15.1144   -3.3526    4.0979 C   0  0  0  0  0  0  0  0  0  0  0  0
   15.7544   -4.2075    3.1944 C   0  0  0  0  0  0  0  0  0  0  0  0
   15.1669   -4.4896    1.9637 C   0  0  0  0  0  0  0  0  0  0  0  0
   13.9352   -3.9271    1.6375 C   0  0  0  0  0  0  0  0  0  0  0  0
   13.2954   -3.0737    2.5407 C   0  0  0  0  0  0  0  0  0  0  0  0
   13.6707    0.3941    3.9133 C   0  0  0  0  0  0  0  0  0  0  0  0
   13.8089    1.4580    4.9756 C   0  0  0  0  0  0  0  0  0  0  0  0
   14.6191    2.5578    4.7123 C   0  0  0  0  0  0  0  0  0  0  0  0
   14.8041    3.5953    5.5575 N   0  0  0  0  0  0  0  0  0  0  0  0
   14.1680    3.5293    6.7459 C   0  0  0  0  0  0  0  0  0  0  0  0
   13.3693    2.4693    7.1274 C   0  0  0  0  0  0  0  0  0  0  0  0
   13.1902    1.4173    6.2320 C   0  0  0  0  0  0  0  0  0  0  0  0
    7.0997   -1.8327    0.6107 C   0  0  0  0  0  0  0  0  0  0  0  0
    7.6062   -2.6427   -0.4514 O   0  0  0  0  0  0  0  0  0  0  0  0
    5.2688    0.0094   -1.4661 S   0  0  0  0  0  0  0  0  0  0  0  0
    4.6646   -1.1891   -0.9410 O   0  0  0  0  0  0  0  0  0  0  0  0
    4.7595    1.3142   -1.1045 O   0  0  0  0  0  0  0  0  0  0  0  0
    5.2019   -0.1370   -3.2379 C   0  0  0  0  0  0  0  0  0  0  0  0
    5.7439   -1.2675   -3.8508 C   0  0  0  0  0  0  0  0  0  0  0  0
    5.6619   -1.3979   -5.2390 C   0  0  0  0  0  0  0  0  0  0  0  0
    5.0001   -0.4363   -6.0136 C   0  0  0  0  0  0  0  0  0  0  0  0
    4.4995    0.7083   -5.3876 C   0  0  0  0  0  0  0  0  0  0  0  0
    4.5761    0.8552   -4.0002 C   0  0  0  0  0  0  0  0  0  0  0  0
    5.0380   -0.5170   -7.4105 N   0  0  0  0  0  0  0  0  0  0  0  0
   10.7384    0.1034   -2.7294 H   0  0  0  0  0  0  0  0  0  0  0  0
    9.2454    0.2097   -3.6777 H   0  0  0  0  0  0  0  0  0  0  0  0
    9.3425   -0.8822   -2.2828 H   0  0  0  0  0  0  0  0  0  0  0  0
    9.5972    1.0563   -0.7527 H   0  0  0  0  0  0  0  0  0  0  0  0
    9.2029    2.8734   -3.1732 H   0  0  0  0  0  0  0  0  0  0  0  0
   10.7538    2.5689   -2.3754 H   0  0  0  0  0  0  0  0  0  0  0  0
    9.4412    3.3533   -1.4900 H   0  0  0  0  0  0  0  0  0  0  0  0
    7.2428    1.4825   -2.6562 H   0  0  0  0  0  0  0  0  0  0  0  0
    7.3271    2.1241   -1.0149 H   0  0  0  0  0  0  0  0  0  0  0  0
    8.4741   -0.2618    0.3466 H   0  0  0  0  0  0  0  0  0  0  0  0
    5.7355    0.7542    1.2036 H   0  0  0  0  0  0  0  0  0  0  0  0
    7.2372    1.6502    1.1488 H   0  0  0  0  0  0  0  0  0  0  0  0
    6.3679   -0.4972    3.0941 H   0  0  0  0  0  0  0  0  0  0  0  0
    6.6843    1.1953    3.4170 H   0  0  0  0  0  0  0  0  0  0  0  0
    8.8296   -0.8470    2.6425 H   0  0  0  0  0  0  0  0  0  0  0  0
    8.3464   -0.4333    4.2804 H   0  0  0  0  0  0  0  0  0  0  0  0
    9.2438    1.7621    4.1530 H   0  0  0  0  0  0  0  0  0  0  0  0
    9.4179    1.7049    2.3971 H   0  0  0  0  0  0  0  0  0  0  0  0
   11.5198    1.4505    3.4505 H   0  0  0  0  0  0  0  0  0  0  0  0
   12.3535   -2.4665    5.2209 H   0  0  0  0  0  0  0  0  0  0  0  0
   13.8385   -1.6105    5.5980 H   0  0  0  0  0  0  0  0  0  0  0  0
   15.5846   -3.1643    5.0598 H   0  0  0  0  0  0  0  0  0  0  0  0
   16.7062   -4.6652    3.4562 H   0  0  0  0  0  0  0  0  0  0  0  0
   15.6618   -5.1573    1.2626 H   0  0  0  0  0  0  0  0  0  0  0  0
   13.4620   -4.1645    0.6877 H   0  0  0  0  0  0  0  0  0  0  0  0
   12.3227   -2.6633    2.2784 H   0  0  0  0  0  0  0  0  0  0  0  0
   13.4166    0.8695    2.9583 H   0  0  0  0  0  0  0  0  0  0  0  0
   14.6424   -0.0944    3.7762 H   0  0  0  0  0  0  0  0  0  0  0  0
   15.1663    2.6406    3.7750 H   0  0  0  0  0  0  0  0  0  0  0  0
   14.3262    4.3795    7.4028 H   0  0  0  0  0  0  0  0  0  0  0  0
   12.8913    2.4604    8.1012 H   0  0  0  0  0  0  0  0  0  0  0  0
   12.5638    0.5802    6.5271 H   0  0  0  0  0  0  0  0  0  0  0  0
    6.0403   -2.0458    0.7550 H   0  0  0  0  0  0  0  0  0  0  0  0
    7.6045   -2.1615    1.5209 H   0  0  0  0  0  0  0  0  0  0  0  0
    7.3937   -2.1448   -1.2606 H   0  0  0  0  0  0  0  0  0  0  0  0
    6.2199   -2.0507   -3.2648 H   0  0  0  0  0  0  0  0  0  0  0  0
    6.1101   -2.2638   -5.7179 H   0  0  0  0  0  0  0  0  0  0  0  0
    4.0305    1.4918   -5.9801 H   0  0  0  0  0  0  0  0  0  0  0  0
    4.1456    1.7400   -3.5356 H   0  0  0  0  0  0  0  0  0  0  0  0
    5.0722   -1.4700   -7.7575 H   0  0  0  0  0  0  0  0  0  0  0  0
    4.3087    0.0200   -7.8714 H   0  0  0  0  0  0  0  0  0  0  0  0
  1  2  1  0  0  0  0
  1 41  1  0  0  0  0
  1 42  1  0  0  0  0
  1 43  1  0  0  0  0
  2  3  1  0  0  0  0
  2  4  1  0  0  0  0
  2 44  1  0  0  0  0
  3 45  1  0  0  0  0
  3 46  1  0  0  0  0
  3 47  1  0  0  0  0
  4  5  1  0  0  0  0
  4 48  1  0  0  0  0
  4 49  1  0  0  0  0
  5  6  1  0  0  0  0
  5 31  1  0  0  0  0
  6  7  1  0  0  0  0
  6 29  1  0  0  0  0
  6 50  1  1  0  0  0
  7  8  1  0  0  0  0
  7 51  1  0  0  0  0
  7 52  1  0  0  0  0
  8  9  1  0  0  0  0
  8 53  1  0  0  0  0
  8 54  1  0  0  0  0
  9 10  1  0  0  0  0
  9 55  1  0  0  0  0
  9 56  1  0  0  0  0
 10 11  1  0  0  0  0
 10 57  1  0  0  0  0
 10 58  1  0  0  0  0
 11 12  1  0  0  0  0
 11 59  1  0  0  0  0
 12 13  2  0  0  0  0
 12 14  1  0  0  0  0
 14 15  1  0  0  0  0
 14 22  1  0  0  0  0
 15 16  1  0  0  0  0
 15 60  1  0  0  0  0
 15 61  1  0  0  0  0
 16 17  2  0  0  0  0
 16 21  1  0  0  0  0
 17 18  1  0  0  0  0
 17 62  1  0  0  0  0
 18 19  2  0  0  0  0
 18 63  1  0  0  0  0
 19 20  1  0  0  0  0
 19 64  1  0  0  0  0
 20 21  2  0  0  0  0
 20 65  1  0  0  0  0
 21 66  1  0  0  0  0
 22 23  1  0  0  0  0
 22 67  1  0  0  0  0
 22 68  1  0  0  0  0
 23 24  2  0  0  0  0
 23 28  1  0  0  0  0
 24 25  1  0  0  0  0
 24 69  1  0  0  0  0
 25 26  2  0  0  0  0
 26 27  1  0  0  0  0
 26 70  1  0  0  0  0
 27 28  2  0  0  0  0
 27 71  1  0  0  0  0
 28 72  1  0  0  0  0
 29 30  1  0  0  0  0
 29 73  1  0  0  0  0
 29 74  1  0  0  0  0
 30 75  1  0  0  0  0
 31 32  2  0  0  0  0
 31 33  2  0  0  0  0
 31 34  1  0  0  0  0
 34 35  2  0  0  0  0
 34 39  1  0  0  0  0
 35 36  1  0  0  0  0
 35 76  1  0  0  0  0
 36 37  2  0  0  0  0
 36 77  1  0  0  0  0
 37 38  1  0  0  0  0
 37 40  1  0  0  0  0
 38 39  2  0  0  0  0
 38 78  1  0  0  0  0
 39 79  1  0  0  0  0
 40 80  1  0  0  0  0
 40 81  1  0  0  0  0
M  END
