
 OpenBabel10072620223D

 21 22  0  0  0  0  0  0  0  0999 V2000
   -1.1793   -1.4470   -0.2418 C   0  0  0  0  0  0  0  0  0  0  0  0
    0.0286   -2.1459   -0.1789 C   0  0  0  0  0  0  0  0  0  0  0  0
    1.2306   -1.4651    0.0708 C   0  0  0  0  0  0  0  0  0  0  0  0
    1.2076   -0.0748    0.2566 C   0  0  0  0  0  0  0  0  0  0  0  0
   -0.0045    0.6218    0.1927 C   0  0  0  0  0  0  0  0  0  0  0  0
   -1.1898   -0.0671   -0.0558 C   0  0  0  0  0  0  0  0  0  0  0  0
   -2.6769    0.7930   -0.1334 Cl  0  0  0  0  0  0  0  0  0  0  0  0
    2.6316    0.8535    0.5690 Cl  0  0  0  0  0  0  0  0  0  0  0  0
    2.4959   -2.2416    0.1304 C   0  0  0  0  0  0  0  0  0  0  0  0
    2.4971   -3.5244   -0.0433 N   0  0  0  0  0  0  0  0  0  0  0  0
    3.6969   -4.1766    0.0240 N   0  0  0  0  0  0  0  0  0  0  0  0
    4.9802   -3.7448    0.2474 C   0  0  0  0  0  0  0  0  0  0  0  0
    5.8191   -4.7571    0.2194 N   0  0  0  0  0  0  0  0  0  0  0  0
    5.0886   -5.8925   -0.0274 N   0  0  0  0  0  0  0  0  0  0  0  0
    3.8314   -5.5316   -0.1408 C   0  0  0  0  0  0  0  0  0  0  0  0
   -2.1044   -1.9853   -0.4360 H   0  0  0  0  0  0  0  0  0  0  0  0
    0.0212   -3.2246   -0.3265 H   0  0  0  0  0  0  0  0  0  0  0  0
   -0.0257    1.6996    0.3362 H   0  0  0  0  0  0  0  0  0  0  0  0
    3.4145   -1.6687    0.3276 H   0  0  0  0  0  0  0  0  0  0  0  0
    5.2587   -2.7181    0.4213 H   0  0  0  0  0  0  0  0  0  0  0  0
    2.9897   -6.1777   -0.3360 H   0  0  0  0  0  0  0  0  0  0  0  0
  1  2  2  0  0  0  0
  1  6  1  0  0  0  0
  1 16  1  0  0  0  0
  2  3  1  0  0  0  0
  2 17  1  0  0  0  0
  3  4  2  0  0  0  0
  3  9  1  0  0  0  0
  4  5  1  0  0  0  0
  4  8  1  0  0  0  0
  5  6  2  0  0  0  0
  5 18  1  0  0  0  0
  6  7  1  0  0  0  0
  9 10  2  0  0  0  0
  9 19  1  0  0  0  0
 10 11  1  0  0  0  0
 11 12  1  0  0  0  0
 11 15  1  0  0  0  0
 12 13  2  0  0  0  0
 12 20  1  0  0  0  0
 13 14  1  0  0  0  0
 14 15  2  0  0  0  0
 15 21  1  0  0  0  0
M  END
