
 OpenBabel10072620033D

 43 44  0  0  0  0  0  0  0  0999 V2000
   -1.8226    1.1913    1.0439 C   0  0  0  0  0  0  0  0  0  0  0  0
   -0.6759    0.4762    0.3930 C   0  0  0  0  0  0  0  0  0  0  0  0
    0.2069    1.1634   -0.4469 C   0  0  0  0  0  0  0  0  0  0  0  0
    1.2563    0.4896   -1.0815 C   0  0  0  0  0  0  0  0  0  0  0  0
    1.4238   -0.8870   -0.8626 C   0  0  0  0  0  0  0  0  0  0  0  0
    0.5511   -1.5905   -0.0307 C   0  0  0  0  0  0  0  0  0  0  0  0
   -0.5067   -0.9031    0.5785 C   0  0  0  0  0  0  0  0  0  0  0  0
    0.6472   -2.9765    0.2171 N   0  0  0  0  0  0  0  0  0  0  0  0
    1.7085   -3.8070   -0.0678 C   0  0  0  0  0  0  0  0  0  0  0  0
    2.8171   -3.4111   -0.4215 O   0  0  0  0  0  0  0  0  0  0  0  0
    1.4446   -5.1743    0.1179 N   0  0  0  0  0  0  0  0  0  0  0  0
    0.1232   -5.7234    0.4122 C   0  0  0  0  0  0  0  0  0  0  0  0
    2.6219   -6.0631    0.2368 C   0  0  0  0  0  0  0  0  0  0  0  0
    2.3860   -7.5091   -0.2325 C   0  0  0  0  0  0  0  0  0  0  0  0
    3.6535   -8.3511   -0.1020 C   0  0  0  0  0  0  0  0  0  0  0  0
    4.1892   -8.3315    1.3267 C   0  0  0  0  0  0  0  0  0  0  0  0
    4.4167   -6.9073    1.8231 C   0  0  0  0  0  0  0  0  0  0  0  0
    3.1638   -6.0460    1.6781 C   0  0  0  0  0  0  0  0  0  0  0  0
    2.2200    1.2245   -1.9672 C   0  0  0  0  0  0  0  0  0  0  0  0
   -1.6030    2.2572    1.1670 H   0  0  0  0  0  0  0  0  0  0  0  0
   -2.0165    0.7828    2.0415 H   0  0  0  0  0  0  0  0  0  0  0  0
   -2.7248    1.0852    0.4336 H   0  0  0  0  0  0  0  0  0  0  0  0
    0.0775    2.2319   -0.6082 H   0  0  0  0  0  0  0  0  0  0  0  0
    2.2427   -1.3937   -1.3653 H   0  0  0  0  0  0  0  0  0  0  0  0
   -1.2092   -1.4363    1.2141 H   0  0  0  0  0  0  0  0  0  0  0  0
   -0.0228   -3.3424    0.8720 H   0  0  0  0  0  0  0  0  0  0  0  0
   -0.6794   -5.0453    0.1144 H   0  0  0  0  0  0  0  0  0  0  0  0
    0.0539   -5.9215    1.4848 H   0  0  0  0  0  0  0  0  0  0  0  0
   -0.0354   -6.6461   -0.1501 H   0  0  0  0  0  0  0  0  0  0  0  0
    3.4090   -5.6521   -0.4094 H   0  0  0  0  0  0  0  0  0  0  0  0
    2.0493   -7.5130   -1.2760 H   0  0  0  0  0  0  0  0  0  0  0  0
    1.5982   -7.9868    0.3624 H   0  0  0  0  0  0  0  0  0  0  0  0
    4.4198   -7.9692   -0.7874 H   0  0  0  0  0  0  0  0  0  0  0  0
    3.4416   -9.3837   -0.4014 H   0  0  0  0  0  0  0  0  0  0  0  0
    5.1286   -8.8935    1.3759 H   0  0  0  0  0  0  0  0  0  0  0  0
    3.4781   -8.8387    1.9906 H   0  0  0  0  0  0  0  0  0  0  0  0
    5.2379   -6.4515    1.2564 H   0  0  0  0  0  0  0  0  0  0  0  0
    4.7289   -6.9283    2.8733 H   0  0  0  0  0  0  0  0  0  0  0  0
    3.3981   -5.0189    1.9830 H   0  0  0  0  0  0  0  0  0  0  0  0
    2.3925   -6.4064    2.3705 H   0  0  0  0  0  0  0  0  0  0  0  0
    1.8633    2.2349   -2.1946 H   0  0  0  0  0  0  0  0  0  0  0  0
    2.3420    0.6959   -2.9187 H   0  0  0  0  0  0  0  0  0  0  0  0
    3.1934    1.3072   -1.4732 H   0  0  0  0  0  0  0  0  0  0  0  0
  1  2  1  0  0  0  0
  1 20  1  0  0  0  0
  1 21  1  0  0  0  0
  1 22  1  0  0  0  0
  2  3  2  0  0  0  0
  2  7  1  0  0  0  0
  3  4  1  0  0  0  0
  3 23  1  0  0  0  0
  4  5  2  0  0  0  0
  4 19  1  0  0  0  0
  5  6  1  0  0  0  0
  5 24  1  0  0  0  0
  6  7  2  0  0  0  0
  6  8  1  0  0  0  0
  7 25  1  0  0  0  0
  8  9  1  0  0  0  0
  8 26  1  0  0  0  0
  9 10  2  0  0  0  0
  9 11  1  0  0  0  0
 11 12  1  0  0  0  0
 11 13  1  0  0  0  0
 12 27  1  0  0  0  0
 12 28  1  0  0  0  0
 12 29  1  0  0  0  0
 13 14  1  0  0  0  0
 13 18  1  0  0  0  0
 13 30  1  0  0  0  0
 14 15  1  0  0  0  0
 14 31  1  0  0  0  0
 14 32  1  0  0  0  0
 15 16  1  0  0  0  0
 15 33  1  0  0  0  0
 15 34  1  0  0  0  0
 16 17  1  0  0  0  0
 16 35  1  0  0  0  0
 16 36  1  0  0  0  0
 17 18  1  0  0  0  0
 17 37  1  0  0  0  0
 17 38  1  0  0  0  0
 18 39  1  0  0  0  0
 18 40  1  0  0  0  0
 19 41  1  0  0  0  0
 19 42  1  0  0  0  0
 19 43  1  0  0  0  0
M  END
