
 OpenBabel10072620073D

 37 38  0  0  0  0  0  0  0  0999 V2000
   -6.2565    3.1755    1.9307 C   0  0  0  0  0  0  0  0  0  0  0  0
   -5.0749    2.3047    1.6189 C   0  0  0  0  0  0  0  0  0  0  0  0
   -3.9544    2.8359    0.9586 C   0  0  0  0  0  0  0  0  0  0  0  0
   -2.8396    2.0420    0.6630 C   0  0  0  0  0  0  0  0  0  0  0  0
   -2.8552    0.7014    1.0722 C   0  0  0  0  0  0  0  0  0  0  0  0
   -3.9513    0.1657    1.7503 C   0  0  0  0  0  0  0  0  0  0  0  0
   -5.0558    0.9674    2.0273 C   0  0  0  0  0  0  0  0  0  0  0  0
   -1.6869    2.5351    0.0306 N   0  0  0  0  0  0  0  0  0  0  0  0
   -1.0906    3.8123   -0.0394 C   0  0  0  0  0  0  0  0  0  0  0  0
   -0.2426    4.1543   -1.1227 C   0  0  0  0  0  0  0  0  0  0  0  0
    0.3443    5.4313   -1.1921 C   0  0  0  0  0  0  0  0  0  0  0  0
    0.0728    6.3830   -0.2091 C   0  0  0  0  0  0  0  0  0  0  0  0
   -0.7733    6.0600    0.8467 C   0  0  0  0  0  0  0  0  0  0  0  0
   -1.3485    4.7914    0.9339 C   0  0  0  0  0  0  0  0  0  0  0  0
   -1.1008    7.2348    2.0608 Cl  0  0  0  0  0  0  0  0  0  0  0  0
    0.0482    3.1457   -2.1867 C   0  0  0  0  0  0  0  0  0  0  0  0
    0.0307    1.9399   -1.9407 O   0  0  0  0  0  0  0  0  0  0  0  0
    0.2921    3.6434   -3.4534 N   0  0  0  0  0  0  0  0  0  0  0  0
    0.3773    2.7221   -4.5086 N   0  0  0  0  0  0  0  0  0  0  0  0
    0.1395    3.1187   -5.7996 C   0  0  0  0  0  0  0  0  0  0  0  0
   -0.0534    4.6867   -6.3277 S   0  0  0  0  0  0  0  0  0  0  0  0
    0.0715    2.0877   -6.6825 N   0  0  0  0  0  0  0  0  0  0  0  0
   -6.4009    3.9347    1.1547 H   0  0  0  0  0  0  0  0  0  0  0  0
   -6.1102    3.6745    2.8936 H   0  0  0  0  0  0  0  0  0  0  0  0
   -7.1759    2.5819    1.9762 H   0  0  0  0  0  0  0  0  0  0  0  0
   -3.9773    3.8734    0.6356 H   0  0  0  0  0  0  0  0  0  0  0  0
   -1.9964    0.0636    0.8765 H   0  0  0  0  0  0  0  0  0  0  0  0
   -3.9394   -0.8744    2.0650 H   0  0  0  0  0  0  0  0  0  0  0  0
   -5.9030    0.5430    2.5611 H   0  0  0  0  0  0  0  0  0  0  0  0
   -1.1770    1.8283   -0.5100 H   0  0  0  0  0  0  0  0  0  0  0  0
    1.0321    5.6971   -1.9912 H   0  0  0  0  0  0  0  0  0  0  0  0
    0.5314    7.3674   -0.2671 H   0  0  0  0  0  0  0  0  0  0  0  0
   -1.9736    4.5553    1.7914 H   0  0  0  0  0  0  0  0  0  0  0  0
    0.0641    4.5999   -3.7170 H   0  0  0  0  0  0  0  0  0  0  0  0
    0.2254    1.7514   -4.2367 H   0  0  0  0  0  0  0  0  0  0  0  0
    0.4554    1.1809   -6.4560 H   0  0  0  0  0  0  0  0  0  0  0  0
   -0.0168    2.3145   -7.6663 H   0  0  0  0  0  0  0  0  0  0  0  0
  1  2  1  0  0  0  0
  1 23  1  0  0  0  0
  1 24  1  0  0  0  0
  1 25  1  0  0  0  0
  2  3  2  0  0  0  0
  2  7  1  0  0  0  0
  3  4  1  0  0  0  0
  3 26  1  0  0  0  0
  4  5  2  0  0  0  0
  4  8  1  0  0  0  0
  5  6  1  0  0  0  0
  5 27  1  0  0  0  0
  6  7  2  0  0  0  0
  6 28  1  0  0  0  0
  7 29  1  0  0  0  0
  8  9  1  0  0  0  0
  8 30  1  0  0  0  0
  9 10  2  0  0  0  0
  9 14  1  0  0  0  0
 10 11  1  0  0  0  0
 10 16  1  0  0  0  0
 11 12  2  0  0  0  0
 11 31  1  0  0  0  0
 12 13  1  0  0  0  0
 12 32  1  0  0  0  0
 13 14  2  0  0  0  0
 13 15  1  0  0  0  0
 14 33  1  0  0  0  0
 16 17  2  0  0  0  0
 16 18  1  0  0  0  0
 18 19  1  0  0  0  0
 18 34  1  0  0  0  0
 19 20  1  0  0  0  0
 19 35  1  0  0  0  0
 20 21  2  0  0  0  0
 20 22  1  0  0  0  0
 22 36  1  0  0  0  0
 22 37  1  0  0  0  0
M  END
