
 OpenBabel10072620223D

 69 74  0  0  0  0  0  0  0  0999 V2000
   -9.7730   -4.0881   -4.5199 C   0  0  0  0  0  0  0  0  0  0  0  0
   -9.7619   -5.2079   -5.4951 C   0  0  0  0  0  0  0  0  0  0  0  0
   -8.8008   -5.2608   -6.4323 N   0  0  0  0  0  0  0  0  0  0  0  0
   -9.0879   -6.3639   -7.1455 N   0  0  0  0  0  0  0  0  0  0  0  0
  -10.1689   -7.0463   -6.6790 C   0  0  0  0  0  0  0  0  0  0  0  0
  -10.6402   -6.3080   -5.6129 C   0  0  0  0  0  0  0  0  0  0  0  0
  -11.9741   -6.7034   -4.6099 S   0  0  0  0  0  0  0  0  0  0  0  0
  -12.2720   -5.5220   -3.8349 O   0  0  0  0  0  0  0  0  0  0  0  0
  -12.9505   -7.2659   -5.5206 O   0  0  0  0  0  0  0  0  0  0  0  0
  -11.5161   -7.9633   -3.5598 N   0  0  0  0  0  0  0  0  0  0  0  0
  -10.5822   -7.6160   -2.5349 C   0  0  0  0  0  0  0  0  0  0  0  0
  -11.0410   -7.2375   -1.2738 C   0  0  0  0  0  0  0  0  0  0  0  0
  -10.1325   -6.8243   -0.2955 C   0  0  0  0  0  0  0  0  0  0  0  0
   -8.7612   -6.7630   -0.5781 C   0  0  0  0  0  0  0  0  0  0  0  0
   -8.3128   -7.1466   -1.8509 C   0  0  0  0  0  0  0  0  0  0  0  0
   -9.2194   -7.5731   -2.8236 C   0  0  0  0  0  0  0  0  0  0  0  0
   -7.7820   -6.2644    0.4619 C   0  0  0  0  0  0  0  0  0  0  0  0
   -7.1748   -7.3187    1.3368 C   0  0  0  0  0  0  0  0  0  0  0  0
   -6.6275   -7.1106    2.5259 N   0  0  0  0  0  0  0  0  0  0  0  0
   -6.0995   -8.3106    2.8957 C   0  0  0  0  0  0  0  0  0  0  0  0
   -6.3281   -9.2628    1.9551 C   0  0  0  0  0  0  0  0  0  0  0  0
   -7.0388   -8.6427    0.9696 N   0  0  0  0  0  0  0  0  0  0  0  0
   -5.8513  -10.5939    2.0495 C   0  0  0  0  0  0  0  0  0  0  0  0
   -6.0472  -11.4184    1.1616 O   0  0  0  0  0  0  0  0  0  0  0  0
   -5.1267  -10.8327    3.2203 N   0  0  0  0  0  0  0  0  0  0  0  0
   -4.8398   -9.8665    4.2077 C   0  0  0  0  0  0  0  0  0  0  0  0
   -4.1340  -10.1317    5.1841 O   0  0  0  0  0  0  0  0  0  0  0  0
   -5.3686   -8.5831    4.0271 N   0  0  0  0  0  0  0  0  0  0  0  0
   -5.0974   -7.5527    5.0226 C   0  0  0  0  0  0  0  0  0  0  0  0
   -5.9883   -7.7185    6.2219 C   0  0  0  0  0  0  0  0  0  0  0  0
   -7.4376   -7.3053    6.1741 C   0  0  0  0  0  0  0  0  0  0  0  0
   -6.4592   -6.5109    6.9953 C   0  0  0  0  0  0  0  0  0  0  0  0
   -4.5615  -12.1664    3.4016 C   0  0  0  0  0  0  0  0  0  0  0  0
   -5.5026  -13.1181    4.1029 C   0  0  0  0  0  0  0  0  0  0  0  0
   -6.5552  -13.7404    3.4129 C   0  0  0  0  0  0  0  0  0  0  0  0
   -7.4312  -14.6051    4.0757 C   0  0  0  0  0  0  0  0  0  0  0  0
   -7.2671  -14.8608    5.4358 C   0  0  0  0  0  0  0  0  0  0  0  0
   -6.2164  -14.2640    6.1284 C   0  0  0  0  0  0  0  0  0  0  0  0
   -5.3451  -13.4059    5.4612 C   0  0  0  0  0  0  0  0  0  0  0  0
   -4.3251  -12.8742    6.1473 F   0  0  0  0  0  0  0  0  0  0  0  0
   -8.2681   -6.7281   -8.2764 C   0  0  0  0  0  0  0  0  0  0  0  0
   -8.8619   -3.4849   -4.5975 H   0  0  0  0  0  0  0  0  0  0  0  0
   -9.8295   -4.4632   -3.4940 H   0  0  0  0  0  0  0  0  0  0  0  0
  -10.6275   -3.4284   -4.7020 H   0  0  0  0  0  0  0  0  0  0  0  0
  -10.5205   -7.9629   -7.1315 H   0  0  0  0  0  0  0  0  0  0  0  0
  -12.3715   -8.3976   -3.2106 H   0  0  0  0  0  0  0  0  0  0  0  0
  -12.1033   -7.2344   -1.0458 H   0  0  0  0  0  0  0  0  0  0  0  0
  -10.5034   -6.5187    0.6813 H   0  0  0  0  0  0  0  0  0  0  0  0
   -7.2558   -7.0927   -2.1050 H   0  0  0  0  0  0  0  0  0  0  0  0
   -8.8523   -7.8579   -3.8066 H   0  0  0  0  0  0  0  0  0  0  0  0
   -8.2816   -5.5191    1.0947 H   0  0  0  0  0  0  0  0  0  0  0  0
   -6.9732   -5.7226   -0.0458 H   0  0  0  0  0  0  0  0  0  0  0  0
   -7.3629   -9.0676    0.1092 H   0  0  0  0  0  0  0  0  0  0  0  0
   -5.2145   -6.5589    4.5742 H   0  0  0  0  0  0  0  0  0  0  0  0
   -4.0510   -7.6314    5.3423 H   0  0  0  0  0  0  0  0  0  0  0  0
   -5.7315   -8.6033    6.7963 H   0  0  0  0  0  0  0  0  0  0  0  0
   -8.1565   -7.9256    6.6970 H   0  0  0  0  0  0  0  0  0  0  0  0
   -7.8178   -6.8577    5.2618 H   0  0  0  0  0  0  0  0  0  0  0  0
   -6.5175   -6.5927    8.0755 H   0  0  0  0  0  0  0  0  0  0  0  0
   -6.1909   -5.5219    6.6401 H   0  0  0  0  0  0  0  0  0  0  0  0
   -3.6135  -12.0974    3.9486 H   0  0  0  0  0  0  0  0  0  0  0  0
   -4.2980  -12.5927    2.4252 H   0  0  0  0  0  0  0  0  0  0  0  0
   -6.6990  -13.5660    2.3484 H   0  0  0  0  0  0  0  0  0  0  0  0
   -8.2420  -15.0797    3.5276 H   0  0  0  0  0  0  0  0  0  0  0  0
   -7.9513  -15.5290    5.9522 H   0  0  0  0  0  0  0  0  0  0  0  0
   -6.0648  -14.4618    7.1849 H   0  0  0  0  0  0  0  0  0  0  0  0
   -7.3649   -6.1128   -8.2880 H   0  0  0  0  0  0  0  0  0  0  0  0
   -8.8487   -6.5607   -9.1868 H   0  0  0  0  0  0  0  0  0  0  0  0
   -7.9954   -7.7823   -8.1811 H   0  0  0  0  0  0  0  0  0  0  0  0
  1  2  1  0  0  0  0
  1 42  1  0  0  0  0
  1 43  1  0  0  0  0
  1 44  1  0  0  0  0
  2  3  2  0  0  0  0
  2  6  1  0  0  0  0
  3  4  1  0  0  0  0
  4  5  1  0  0  0  0
  4 41  1  0  0  0  0
  5  6  2  0  0  0  0
  5 45  1  0  0  0  0
  6  7  1  0  0  0  0
  7  8  2  0  0  0  0
  7  9  2  0  0  0  0
  7 10  1  0  0  0  0
 10 11  1  0  0  0  0
 10 46  1  0  0  0  0
 11 12  2  0  0  0  0
 11 16  1  0  0  0  0
 12 13  1  0  0  0  0
 12 47  1  0  0  0  0
 13 14  2  0  0  0  0
 13 48  1  0  0  0  0
 14 15  1  0  0  0  0
 14 17  1  0  0  0  0
 15 16  2  0  0  0  0
 15 49  1  0  0  0  0
 16 50  1  0  0  0  0
 17 18  1  0  0  0  0
 17 51  1  0  0  0  0
 17 52  1  0  0  0  0
 18 19  2  0  0  0  0
 18 22  1  0  0  0  0
 19 20  1  0  0  0  0
 20 21  2  0  0  0  0
 20 28  1  0  0  0  0
 21 22  1  0  0  0  0
 21 23  1  0  0  0  0
 22 53  1  0  0  0  0
 23 24  2  0  0  0  0
 23 25  1  0  0  0  0
 25 26  1  0  0  0  0
 25 33  1  0  0  0  0
 26 27  2  0  0  0  0
 26 28  1  0  0  0  0
 28 29  1  0  0  0  0
 29 30  1  0  0  0  0
 29 54  1  0  0  0  0
 29 55  1  0  0  0  0
 30 31  1  0  0  0  0
 30 32  1  0  0  0  0
 30 56  1  0  0  0  0
 31 32  1  0  0  0  0
 31 57  1  0  0  0  0
 31 58  1  0  0  0  0
 32 59  1  0  0  0  0
 32 60  1  0  0  0  0
 33 34  1  0  0  0  0
 33 61  1  0  0  0  0
 33 62  1  0  0  0  0
 34 35  2  0  0  0  0
 34 39  1  0  0  0  0
 35 36  1  0  0  0  0
 35 63  1  0  0  0  0
 36 37  2  0  0  0  0
 36 64  1  0  0  0  0
 37 38  1  0  0  0  0
 37 65  1  0  0  0  0
 38 39  2  0  0  0  0
 38 66  1  0  0  0  0
 39 40  1  0  0  0  0
 41 67  1  0  0  0  0
 41 68  1  0  0  0  0
 41 69  1  0  0  0  0
M  END
