
 OpenBabel10072620153D

210217  0  0  1  0  0  0  0  0999 V2000
    0.8214   -0.3382   -0.4700 C   0  0  0  0  0  0  0  0  0  0  0  0
    2.2289   -0.4816   -0.5977 O   0  0  0  0  0  0  0  0  0  0  0  0
    2.7522   -1.3931    0.3780 C   0  0  0  0  0  0  0  0  0  0  0  0
    4.2861   -1.3080    0.4209 C   0  0  2  0  0  0  0  0  0  0  0  0
    4.7605    0.1302    0.6682 C   0  0  2  0  0  0  0  0  0  0  0  0
    6.2821    0.2765    0.4986 C   0  0  1  0  0  0  0  0  0  0  0  0
    6.7320   -0.3759   -0.8185 C   0  0  2  0  0  0  0  0  0  0  0  0
    6.2314   -1.8421   -0.8489 C   0  0  2  0  0  0  0  0  0  0  0  0
    4.8045   -1.8713   -0.7979 O   0  0  0  0  0  0  0  0  0  0  0  0
    6.7722   -2.5600    0.2593 O   0  0  0  0  0  0  0  0  0  0  0  0
    6.9963   -3.9705    0.0572 C   0  0  2  0  0  0  0  0  0  0  0  0
    6.7994   -4.6235    1.4450 C   0  0  2  0  0  0  0  0  0  0  0  0
    7.4380   -5.9031    1.5599 O   0  0  0  0  0  0  0  0  0  0  0  0
    8.8352   -5.8254    1.3088 C   0  0  1  0  0  0  0  0  0  0  0  0
    9.0230   -5.5577   -0.1954 C   0  0  1  0  0  0  0  0  0  0  0  0
    8.4208   -4.1721   -0.5364 C   0  0  1  0  0  0  0  0  0  0  0  0
    8.2931   -3.9784   -1.9719 O   0  0  0  0  0  0  0  0  0  0  0  0
    9.5354   -3.9040   -2.6619 C   0  0  0  0  0  0  0  0  0  0  0  0
   10.4123   -5.5777   -0.5838 O   0  0  0  0  0  0  0  0  0  0  0  0
   11.0441   -6.8397   -0.4290 C   0  0  0  0  0  0  0  0  0  0  0  0
    9.4317   -4.7846    2.0689 O   0  0  0  0  0  0  0  0  0  0  0  0
   10.2357   -5.1785    3.1914 C   0  0  2  0  0  0  0  0  0  0  0  0
    9.3893   -5.4042    4.4650 C   0  0  2  0  0  0  0  0  0  0  0  0
   10.2173   -5.4695    5.6461 O   0  0  0  0  0  0  0  0  0  0  0  0
   10.9603   -4.2689    5.8500 C   0  0  1  0  0  0  0  0  0  0  0  0
   11.9870   -4.1139    4.7155 C   0  0  1  0  0  0  0  0  0  0  0  0
   11.2363   -4.0108    3.3835 C   0  0  1  0  0  0  0  0  0  0  0  0
   12.1886   -4.0892    2.2911 O   0  0  0  0  0  0  0  0  0  0  0  0
   12.4969   -2.8096    1.7522 C   0  0  0  0  0  0  0  0  0  0  0  0
   12.8199   -2.9554    4.8960 O   0  0  0  0  0  0  0  0  0  0  0  0
   13.8899   -3.1722    5.8029 C   0  0  0  0  0  0  0  0  0  0  0  0
   10.0431   -3.1791    5.9284 O   0  0  0  0  0  0  0  0  0  0  0  0
   10.2501   -2.2776    7.0237 C   0  0  2  0  0  0  0  0  0  0  0  0
    9.3850   -2.6740    8.2383 C   0  0  2  0  0  0  0  0  0  0  0  0
    9.4770   -1.7006    9.2900 O   0  0  0  0  0  0  0  0  0  0  0  0
    9.0535   -0.3996    8.8995 C   0  0  1  0  0  0  0  0  0  0  0  0
    9.8774    0.1265    7.7012 C   0  0  1  0  0  0  0  0  0  0  0  0
    9.8036   -0.8776    6.5416 C   0  0  1  0  0  0  0  0  0  0  0  0
   10.7044   -0.4506    5.4940 O   0  0  0  0  0  0  0  0  0  0  0  0
   10.0108    0.1150    4.3879 C   0  0  0  0  0  0  0  0  0  0  0  0
    9.4047    1.4158    7.2538 O   0  0  0  0  0  0  0  0  0  0  0  0
    9.8743    2.4846    8.0620 C   0  0  0  0  0  0  0  0  0  0  0  0
    7.6614   -0.3842    8.5832 O   0  0  0  0  0  0  0  0  0  0  0  0
    6.7579   -0.4756    9.7063 C   0  0  2  0  0  0  0  0  0  0  0  0
    5.3794   -0.8338    9.1122 C   0  0  2  0  0  0  0  0  0  0  0  0
    4.3355   -0.7129   10.0867 O   0  0  0  0  0  0  0  0  0  0  0  0
    4.1882    0.6252   10.5470 C   0  0  1  0  0  0  0  0  0  0  0  0
    5.4309    0.9986   11.3770 C   0  0  1  0  0  0  0  0  0  0  0  0
    6.7172    0.8457   10.5282 C   0  0  1  0  0  0  0  0  0  0  0  0
    7.8817    0.8261   11.4000 O   0  0  0  0  0  0  0  0  0  0  0  0
    8.1991    2.0802   11.9896 C   0  0  0  0  0  0  0  0  0  0  0  0
    5.3722    2.3573   11.8630 O   0  0  0  0  0  0  0  0  0  0  0  0
    4.3494    2.5879   12.8196 C   0  0  0  0  0  0  0  0  0  0  0  0
    4.0465    1.5369    9.4669 O   0  0  0  0  0  0  0  0  0  0  0  0
    2.7086    1.9883    9.1759 C   0  0  2  0  0  0  0  0  0  0  0  0
    1.9707    1.0060    8.2312 C   0  0  2  0  0  0  0  0  0  0  0  0
    0.8674    1.6255    7.5350 O   0  0  0  0  0  0  0  0  0  0  0  0
    1.2615    2.7726    6.7965 C   0  0  1  0  0  0  0  0  0  0  0  0
    1.6830    3.8802    7.7737 C   0  0  1  0  0  0  0  0  0  0  0  0
    2.9131    3.3886    8.5460 C   0  0  1  0  0  0  0  0  0  0  0  0
    3.1900    4.3142    9.6305 O   0  0  0  0  0  0  0  0  0  0  0  0
    4.2731    5.1861    9.3306 C   0  0  0  0  0  0  0  0  0  0  0  0
    2.0235    5.0943    7.0692 O   0  0  0  0  0  0  0  0  0  0  0  0
    0.8888    5.8722    6.7173 C   0  0  0  0  0  0  0  0  0  0  0  0
    2.3415    2.4411    5.9309 O   0  0  0  0  0  0  0  0  0  0  0  0
    2.0674    2.4900    4.5296 C   0  0  2  0  0  0  0  0  0  0  0  0
    2.1257    1.0607    3.9469 C   0  0  2  0  0  0  0  0  0  0  0  0
    2.3066    1.1564    2.5304 O   0  0  0  0  0  0  0  0  0  0  0  0
    3.6256    1.6065    2.1955 C   0  0  2  0  0  0  0  0  0  0  0  0
    4.4676    0.4718    2.0284 O   0  0  0  0  0  0  0  0  0  0  0  0
    4.2561    2.5793    3.2385 C   0  0  1  0  0  0  0  0  0  0  0  0
    3.1332    3.4150    3.8792 C   0  0  1  0  0  0  0  0  0  0  0  0
    2.4772    4.2522    2.9081 O   0  0  0  0  0  0  0  0  0  0  0  0
    3.1813    5.4610    2.6576 C   0  0  0  0  0  0  0  0  0  0  0  0
    4.9585    1.8566    4.2737 O   0  0  0  0  0  0  0  0  0  0  0  0
    6.0895    2.5518    4.7734 C   0  0  0  0  0  0  0  0  0  0  0  0
    0.8338    0.2852    4.2380 C   0  0  0  0  0  0  0  0  0  0  0  0
    1.0127   -1.1003    3.9034 O   0  0  0  0  0  0  0  0  0  0  0  0
   -0.1525   -1.8577    4.1927 C   0  0  0  0  0  0  0  0  0  0  0  0
    1.3600   -0.2083    8.9506 C   0  0  0  0  0  0  0  0  0  0  0  0
    0.5817    0.2151   10.0791 O   0  0  0  0  0  0  0  0  0  0  0  0
   -0.0123   -0.8949   10.7380 C   0  0  0  0  0  0  0  0  0  0  0  0
    5.3728   -2.2792    8.5850 C   0  0  0  0  0  0  0  0  0  0  0  0
    4.0930   -2.5942    8.0167 O   0  0  0  0  0  0  0  0  0  0  0  0
    4.0600   -3.9304    7.5326 C   0  0  0  0  0  0  0  0  0  0  0  0
    9.7380   -4.0315    8.8609 C   0  0  0  0  0  0  0  0  0  0  0  0
   11.1271   -4.0870    9.2053 O   0  0  0  0  0  0  0  0  0  0  0  0
   11.4563   -5.3315    9.8090 C   0  0  0  0  0  0  0  0  0  0  0  0
    8.5676   -6.7007    4.4636 C   0  0  0  0  0  0  0  0  0  0  0  0
    9.3572   -7.8051    4.0054 O   0  0  0  0  0  0  0  0  0  0  0  0
    8.5877   -8.9983    3.9565 C   0  0  0  0  0  0  0  0  0  0  0  0
    5.3073   -4.8520    1.7506 C   0  0  0  0  0  0  0  0  0  0  0  0
    5.1496   -5.1307    3.1522 O   0  0  0  0  0  0  0  0  0  0  0  0
    3.7824   -5.2902    3.5046 C   0  0  0  0  0  0  0  0  0  0  0  0
    8.1694   -0.3095   -0.9168 O   0  0  0  0  0  0  0  0  0  0  0  0
    8.6255   -0.2968   -2.2617 C   0  0  0  0  0  0  0  0  0  0  0  0
    6.5545    1.7044    0.4944 O   0  0  0  0  0  0  0  0  0  0  0  0
    7.8221    2.0271    1.0508 C   0  0  0  0  0  0  0  0  0  0  0  0
    0.4697    0.3158   -1.2723 H   0  0  0  0  0  0  0  0  0  0  0  0
    0.5671    0.1254    0.4877 H   0  0  0  0  0  0  0  0  0  0  0  0
    0.3230   -1.3074   -0.5633 H   0  0  0  0  0  0  0  0  0  0  0  0
    2.4417   -2.4064    0.0962 H   0  0  0  0  0  0  0  0  0  0  0  0
    2.3399   -1.1655    1.3651 H   0  0  0  0  0  0  0  0  0  0  0  0
    4.6069   -1.9321    1.2602 H   0  0  0  0  0  0  0  0  0  0  0  0
    4.2778    0.8142   -0.0417 H   0  0  0  0  0  0  0  0  0  0  0  0
    6.7981   -0.1730    1.3589 H   0  0  0  0  0  0  0  0  0  0  0  0
    6.2868    0.1956   -1.6436 H   0  0  0  0  0  0  0  0  0  0  0  0
    6.5372   -2.3014   -1.7916 H   0  0  0  0  0  0  0  0  0  0  0  0
    6.2466   -4.3671   -0.6412 H   0  0  0  0  0  0  0  0  0  0  0  0
    7.1883   -3.9634    2.2335 H   0  0  0  0  0  0  0  0  0  0  0  0
    9.2672   -6.7977    1.5642 H   0  0  0  0  0  0  0  0  0  0  0  0
    8.4886   -6.3134   -0.7877 H   0  0  0  0  0  0  0  0  0  0  0  0
    9.0777   -3.3738   -0.1667 H   0  0  0  0  0  0  0  0  0  0  0  0
    9.3545   -3.4292   -3.6303 H   0  0  0  0  0  0  0  0  0  0  0  0
    9.9122   -4.9122   -2.8571 H   0  0  0  0  0  0  0  0  0  0  0  0
   10.2668   -3.3040   -2.1123 H   0  0  0  0  0  0  0  0  0  0  0  0
   11.2497   -7.0352    0.6254 H   0  0  0  0  0  0  0  0  0  0  0  0
   12.0020   -6.8063   -0.9555 H   0  0  0  0  0  0  0  0  0  0  0  0
   10.4360   -7.6438   -0.8561 H   0  0  0  0  0  0  0  0  0  0  0  0
   10.8235   -6.0713    2.9371 H   0  0  0  0  0  0  0  0  0  0  0  0
    8.6662   -4.5861    4.5834 H   0  0  0  0  0  0  0  0  0  0  0  0
   11.4979   -4.3933    6.7908 H   0  0  0  0  0  0  0  0  0  0  0  0
   12.6290   -5.0050    4.6670 H   0  0  0  0  0  0  0  0  0  0  0  0
   10.6996   -3.0530    3.3187 H   0  0  0  0  0  0  0  0  0  0  0  0
   13.1829   -2.9499    0.9130 H   0  0  0  0  0  0  0  0  0  0  0  0
   12.9868   -2.1755    2.4948 H   0  0  0  0  0  0  0  0  0  0  0  0
   11.5914   -2.3218    1.3770 H   0  0  0  0  0  0  0  0  0  0  0  0
   14.4735   -2.2509    5.8703 H   0  0  0  0  0  0  0  0  0  0  0  0
   14.5457   -3.9678    5.4370 H   0  0  0  0  0  0  0  0  0  0  0  0
   13.5202   -3.4163    6.8022 H   0  0  0  0  0  0  0  0  0  0  0  0
   11.3155   -2.2260    7.2831 H   0  0  0  0  0  0  0  0  0  0  0  0
    8.3383   -2.7525    7.9238 H   0  0  0  0  0  0  0  0  0  0  0  0
    9.2594    0.2668    9.7337 H   0  0  0  0  0  0  0  0  0  0  0  0
   10.9348    0.2180    7.9866 H   0  0  0  0  0  0  0  0  0  0  0  0
    8.7831   -0.9360    6.1357 H   0  0  0  0  0  0  0  0  0  0  0  0
   10.7488    0.4980    3.6777 H   0  0  0  0  0  0  0  0  0  0  0  0
    9.3703    0.9434    4.7027 H   0  0  0  0  0  0  0  0  0  0  0  0
    9.4102   -0.6497    3.8859 H   0  0  0  0  0  0  0  0  0  0  0  0
    9.4641    3.4180    7.6688 H   0  0  0  0  0  0  0  0  0  0  0  0
   10.9662    2.5438    8.0201 H   0  0  0  0  0  0  0  0  0  0  0  0
    9.5400    2.3744    9.0961 H   0  0  0  0  0  0  0  0  0  0  0  0
    7.0905   -1.2928   10.3615 H   0  0  0  0  0  0  0  0  0  0  0  0
    5.1490   -0.1895    8.2528 H   0  0  0  0  0  0  0  0  0  0  0  0
    3.3035    0.6487   11.1911 H   0  0  0  0  0  0  0  0  0  0  0  0
    5.5158    0.3246   12.2408 H   0  0  0  0  0  0  0  0  0  0  0  0
    6.8344    1.6958    9.8432 H   0  0  0  0  0  0  0  0  0  0  0  0
    9.2378    2.0374   12.3285 H   0  0  0  0  0  0  0  0  0  0  0  0
    7.5800    2.2614   12.8715 H   0  0  0  0  0  0  0  0  0  0  0  0
    8.1045    2.8978   11.2696 H   0  0  0  0  0  0  0  0  0  0  0  0
    4.4813    3.5978   13.2167 H   0  0  0  0  0  0  0  0  0  0  0  0
    4.4242    1.8757   13.6462 H   0  0  0  0  0  0  0  0  0  0  0  0
    3.3607    2.5353   12.3580 H   0  0  0  0  0  0  0  0  0  0  0  0
    2.1563    2.1329   10.1128 H   0  0  0  0  0  0  0  0  0  0  0  0
    2.6710    0.6081    7.4864 H   0  0  0  0  0  0  0  0  0  0  0  0
    0.3843    3.1024    6.2324 H   0  0  0  0  0  0  0  0  0  0  0  0
    0.8819    4.0925    8.4953 H   0  0  0  0  0  0  0  0  0  0  0  0
    3.7886    3.3609    7.8805 H   0  0  0  0  0  0  0  0  0  0  0  0
    4.4058    5.8707   10.1721 H   0  0  0  0  0  0  0  0  0  0  0  0
    4.0716    5.7780    8.4339 H   0  0  0  0  0  0  0  0  0  0  0  0
    5.1967    4.6130    9.2029 H   0  0  0  0  0  0  0  0  0  0  0  0
    1.2377    6.7583    6.1808 H   0  0  0  0  0  0  0  0  0  0  0  0
    0.3547    6.1989    7.6148 H   0  0  0  0  0  0  0  0  0  0  0  0
    0.2176    5.3165    6.0578 H   0  0  0  0  0  0  0  0  0  0  0  0
    1.0792    2.9249    4.3294 H   0  0  0  0  0  0  0  0  0  0  0  0
    2.9458    0.4729    4.3791 H   0  0  0  0  0  0  0  0  0  0  0  0
    3.5151    2.1666    1.2593 H   0  0  0  0  0  0  0  0  0  0  0  0
    4.9806    3.1998    2.6983 H   0  0  0  0  0  0  0  0  0  0  0  0
    3.5482    4.0565    4.6680 H   0  0  0  0  0  0  0  0  0  0  0  0
    2.6261    6.0289    1.9070 H   0  0  0  0  0  0  0  0  0  0  0  0
    4.1843    5.2631    2.2702 H   0  0  0  0  0  0  0  0  0  0  0  0
    3.2402    6.0605    3.5707 H   0  0  0  0  0  0  0  0  0  0  0  0
    6.5118    1.9749    5.6005 H   0  0  0  0  0  0  0  0  0  0  0  0
    5.8120    3.5430    5.1420 H   0  0  0  0  0  0  0  0  0  0  0  0
    6.8508    2.6415    3.9931 H   0  0  0  0  0  0  0  0  0  0  0  0
    0.0040    0.6837    3.6430 H   0  0  0  0  0  0  0  0  0  0  0  0
    0.5826    0.3479    5.3001 H   0  0  0  0  0  0  0  0  0  0  0  0
    0.0567   -2.9085    3.9756 H   0  0  0  0  0  0  0  0  0  0  0  0
   -0.9829   -1.5269    3.5622 H   0  0  0  0  0  0  0  0  0  0  0  0
   -0.4215   -1.7676    5.2500 H   0  0  0  0  0  0  0  0  0  0  0  0
    2.1289   -0.9042    9.2851 H   0  0  0  0  0  0  0  0  0  0  0  0
    0.6988   -0.7436    8.2572 H   0  0  0  0  0  0  0  0  0  0  0  0
   -0.5997   -0.5202   11.5804 H   0  0  0  0  0  0  0  0  0  0  0  0
    0.7599   -1.5687   11.1211 H   0  0  0  0  0  0  0  0  0  0  0  0
   -0.6802   -1.4331   10.0587 H   0  0  0  0  0  0  0  0  0  0  0  0
    5.5714   -2.9794    9.4048 H   0  0  0  0  0  0  0  0  0  0  0  0
    6.1345   -2.4031    7.8097 H   0  0  0  0  0  0  0  0  0  0  0  0
    3.0744   -4.1165    7.0978 H   0  0  0  0  0  0  0  0  0  0  0  0
    4.2181   -4.6378    8.3529 H   0  0  0  0  0  0  0  0  0  0  0  0
    4.8193   -4.0787    6.7588 H   0  0  0  0  0  0  0  0  0  0  0  0
    9.4961   -4.8472    8.1713 H   0  0  0  0  0  0  0  0  0  0  0  0
    9.1505   -4.1685    9.7769 H   0  0  0  0  0  0  0  0  0  0  0  0
   12.5185   -5.3208   10.0667 H   0  0  0  0  0  0  0  0  0  0  0  0
   11.2733   -6.1516    9.1081 H   0  0  0  0  0  0  0  0  0  0  0  0
   10.8749   -5.4805   10.7240 H   0  0  0  0  0  0  0  0  0  0  0  0
    7.6829   -6.5947    3.8338 H   0  0  0  0  0  0  0  0  0  0  0  0
    8.2282   -6.9204    5.4838 H   0  0  0  0  0  0  0  0  0  0  0  0
    9.2173   -9.7962    3.5543 H   0  0  0  0  0  0  0  0  0  0  0  0
    7.7229   -8.8702    3.2982 H   0  0  0  0  0  0  0  0  0  0  0  0
    8.2589   -9.2812    4.9608 H   0  0  0  0  0  0  0  0  0  0  0  0
    4.9266   -5.7099    1.1830 H   0  0  0  0  0  0  0  0  0  0  0  0
    4.7141   -3.9724    1.5009 H   0  0  0  0  0  0  0  0  0  0  0  0
    3.7208   -5.4271    4.5879 H   0  0  0  0  0  0  0  0  0  0  0  0
    3.3693   -6.1776    3.0174 H   0  0  0  0  0  0  0  0  0  0  0  0
    3.2024   -4.4023    3.2313 H   0  0  0  0  0  0  0  0  0  0  0  0
    9.7190   -0.2793   -2.2567 H   0  0  0  0  0  0  0  0  0  0  0  0
    8.2702    0.6024   -2.7740 H   0  0  0  0  0  0  0  0  0  0  0  0
    8.2918   -1.1842   -2.8034 H   0  0  0  0  0  0  0  0  0  0  0  0
    7.9438    1.5795    2.0416 H   0  0  0  0  0  0  0  0  0  0  0  0
    7.8746    3.1149    1.1583 H   0  0  0  0  0  0  0  0  0  0  0  0
    8.6343    1.7176    0.3907 H   0  0  0  0  0  0  0  0  0  0  0  0
  1  2  1  0  0  0  0
  1 99  1  0  0  0  0
  1100  1  0  0  0  0
  1101  1  0  0  0  0
  2  3  1  0  0  0  0
  3  4  1  0  0  0  0
  3102  1  0  0  0  0
  3103  1  0  0  0  0
  4  5  1  0  0  0  0
  4  9  1  0  0  0  0
  4104  1  1  0  0  0
  5  6  1  0  0  0  0
  5 70  1  0  0  0  0
  5105  1  6  0  0  0
  6  7  1  0  0  0  0
  6 97  1  0  0  0  0
  6106  1  1  0  0  0
  7  8  1  0  0  0  0
  7 95  1  0  0  0  0
  7107  1  6  0  0  0
  8  9  1  0  0  0  0
  8 10  1  0  0  0  0
  8108  1  6  0  0  0
 10 11  1  0  0  0  0
 11 12  1  0  0  0  0
 11 16  1  0  0  0  0
 11109  1  6  0  0  0
 12 13  1  0  0  0  0
 12 92  1  0  0  0  0
 12110  1  1  0  0  0
 13 14  1  0  0  0  0
 14 15  1  0  0  0  0
 14 21  1  0  0  0  0
 14111  1  1  0  0  0
 15 16  1  0  0  0  0
 15 19  1  0  0  0  0
 15112  1  6  0  0  0
 16 17  1  0  0  0  0
 16113  1  1  0  0  0
 17 18  1  0  0  0  0
 18114  1  0  0  0  0
 18115  1  0  0  0  0
 18116  1  0  0  0  0
 19 20  1  0  0  0  0
 20117  1  0  0  0  0
 20118  1  0  0  0  0
 20119  1  0  0  0  0
 21 22  1  0  0  0  0
 22 23  1  0  0  0  0
 22 27  1  0  0  0  0
 22120  1  6  0  0  0
 23 24  1  0  0  0  0
 23 89  1  0  0  0  0
 23121  1  1  0  0  0
 24 25  1  0  0  0  0
 25 26  1  0  0  0  0
 25 32  1  0  0  0  0
 25122  1  1  0  0  0
 26 27  1  0  0  0  0
 26 30  1  0  0  0  0
 26123  1  6  0  0  0
 27 28  1  0  0  0  0
 27124  1  6  0  0  0
 28 29  1  0  0  0  0
 29125  1  0  0  0  0
 29126  1  0  0  0  0
 29127  1  0  0  0  0
 30 31  1  0  0  0  0
 31128  1  0  0  0  0
 31129  1  0  0  0  0
 31130  1  0  0  0  0
 32 33  1  0  0  0  0
 33 34  1  0  0  0  0
 33 38  1  0  0  0  0
 33131  1  1  0  0  0
 34 35  1  0  0  0  0
 34 86  1  0  0  0  0
 34132  1  6  0  0  0
 35 36  1  0  0  0  0
 36 37  1  0  0  0  0
 36 43  1  0  0  0  0
 36133  1  1  0  0  0
 37 38  1  0  0  0  0
 37 41  1  0  0  0  0
 37134  1  1  0  0  0
 38 39  1  0  0  0  0
 38135  1  6  0  0  0
 39 40  1  0  0  0  0
 40136  1  0  0  0  0
 40137  1  0  0  0  0
 40138  1  0  0  0  0
 41 42  1  0  0  0  0
 42139  1  0  0  0  0
 42140  1  0  0  0  0
 42141  1  0  0  0  0
 43 44  1  0  0  0  0
 44 45  1  0  0  0  0
 44 49  1  0  0  0  0
 44142  1  1  0  0  0
 45 46  1  0  0  0  0
 45 83  1  0  0  0  0
 45143  1  6  0  0  0
 46 47  1  0  0  0  0
 47 48  1  0  0  0  0
 47 54  1  0  0  0  0
 47144  1  1  0  0  0
 48 49  1  0  0  0  0
 48 52  1  0  0  0  0
 48145  1  1  0  0  0
 49 50  1  0  0  0  0
 49146  1  6  0  0  0
 50 51  1  0  0  0  0
 51147  1  0  0  0  0
 51148  1  0  0  0  0
 51149  1  0  0  0  0
 52 53  1  0  0  0  0
 53150  1  0  0  0  0
 53151  1  0  0  0  0
 53152  1  0  0  0  0
 54 55  1  0  0  0  0
 55 56  1  0  0  0  0
 55 60  1  0  0  0  0
 55153  1  1  0  0  0
 56 57  1  0  0  0  0
 56 80  1  0  0  0  0
 56154  1  6  0  0  0
 57 58  1  0  0  0  0
 58 59  1  0  0  0  0
 58 65  1  0  0  0  0
 58155  1  6  0  0  0
 59 60  1  0  0  0  0
 59 63  1  0  0  0  0
 59156  1  1  0  0  0
 60 61  1  0  0  0  0
 60157  1  6  0  0  0
 61 62  1  0  0  0  0
 62158  1  0  0  0  0
 62159  1  0  0  0  0
 62160  1  0  0  0  0
 63 64  1  0  0  0  0
 64161  1  0  0  0  0
 64162  1  0  0  0  0
 64163  1  0  0  0  0
 65 66  1  0  0  0  0
 66 67  1  0  0  0  0
 66 72  1  0  0  0  0
 66164  1  6  0  0  0
 67 68  1  0  0  0  0
 67 77  1  0  0  0  0
 67165  1  1  0  0  0
 68 69  1  0  0  0  0
 69 70  1  0  0  0  0
 69 71  1  0  0  0  0
 69166  1  6  0  0  0
 71 72  1  0  0  0  0
 71 75  1  0  0  0  0
 71167  1  6  0  0  0
 72 73  1  0  0  0  0
 72168  1  1  0  0  0
 73 74  1  0  0  0  0
 74169  1  0  0  0  0
 74170  1  0  0  0  0
 74171  1  0  0  0  0
 75 76  1  0  0  0  0
 76172  1  0  0  0  0
 76173  1  0  0  0  0
 76174  1  0  0  0  0
 77 78  1  0  0  0  0
 77175  1  0  0  0  0
 77176  1  0  0  0  0
 78 79  1  0  0  0  0
 79177  1  0  0  0  0
 79178  1  0  0  0  0
 79179  1  0  0  0  0
 80 81  1  0  0  0  0
 80180  1  0  0  0  0
 80181  1  0  0  0  0
 81 82  1  0  0  0  0
 82182  1  0  0  0  0
 82183  1  0  0  0  0
 82184  1  0  0  0  0
 83 84  1  0  0  0  0
 83185  1  0  0  0  0
 83186  1  0  0  0  0
 84 85  1  0  0  0  0
 85187  1  0  0  0  0
 85188  1  0  0  0  0
 85189  1  0  0  0  0
 86 87  1  0  0  0  0
 86190  1  0  0  0  0
 86191  1  0  0  0  0
 87 88  1  0  0  0  0
 88192  1  0  0  0  0
 88193  1  0  0  0  0
 88194  1  0  0  0  0
 89 90  1  0  0  0  0
 89195  1  0  0  0  0
 89196  1  0  0  0  0
 90 91  1  0  0  0  0
 91197  1  0  0  0  0
 91198  1  0  0  0  0
 91199  1  0  0  0  0
 92 93  1  0  0  0  0
 92200  1  0  0  0  0
 92201  1  0  0  0  0
 93 94  1  0  0  0  0
 94202  1  0  0  0  0
 94203  1  0  0  0  0
 94204  1  0  0  0  0
 95 96  1  0  0  0  0
 96205  1  0  0  0  0
 96206  1  0  0  0  0
 96207  1  0  0  0  0
 97 98  1  0  0  0  0
 98208  1  0  0  0  0
 98209  1  0  0  0  0
 98210  1  0  0  0  0
M  END
