
 OpenBabel10072620113D

 44 43  0  0  0  0  0  0  0  0999 V2000
    0.7623   -0.1720    0.4288 C   0  0  0  0  0  0  0  0  0  0  0  0
    0.2846    0.1276    1.8534 C   0  0  0  0  0  0  0  0  0  0  0  0
    0.5473    1.5300    2.2647 N   0  3  0  0  0  0  0  0  0  0  0  0
    0.0221    1.9646    3.3001 O   0  0  0  0  0  0  0  0  0  0  0  0
    1.2899    2.2166    1.5414 O   0  5  0  0  0  0  0  0  0  0  0  0
   -1.1825   -0.0445    1.9836 N   0  3  0  0  0  0  0  0  0  0  0  0
   -1.8652    0.2043    0.9772 O   0  0  0  0  0  0  0  0  0  0  0  0
   -1.6679   -0.3781    3.0748 O   0  5  0  0  0  0  0  0  0  0  0  0
    0.9684   -0.7855    2.7939 N   0  3  0  0  0  0  0  0  0  0  0  0
    0.6388   -1.9814    2.7751 O   0  0  0  0  0  0  0  0  0  0  0  0
    1.9389   -0.3559    3.4395 O   0  5  0  0  0  0  0  0  0  0  0  0
    2.2263   -0.0800    0.2186 N   0  0  0  0  0  0  0  0  0  0  0  0
    2.9726   -1.1259   -0.2173 C   0  0  0  0  0  0  0  0  0  0  0  0
    2.4586   -2.1912   -0.5356 O   0  0  0  0  0  0  0  0  0  0  0  0
    4.3471   -0.9482   -0.2244 N   0  0  0  0  0  0  0  0  0  0  0  0
    5.0304    0.1326    0.5896 C   0  0  0  0  0  0  0  0  0  0  0  0
    5.7600    1.3121   -0.0940 C   0  0  0  0  0  0  0  0  0  0  0  0
    4.8528    2.3043   -0.7114 N   0  3  0  0  0  0  0  0  0  0  0  0
    5.3118    3.3884   -1.0970 O   0  0  0  0  0  0  0  0  0  0  0  0
    3.6501    2.0075   -0.7888 O   0  5  0  0  0  0  0  0  0  0  0  0
    6.5347    2.0874    0.9160 N   0  3  0  0  0  0  0  0  0  0  0  0
    7.6095    2.6112    0.5973 O   0  0  0  0  0  0  0  0  0  0  0  0
    6.0395    2.1697    2.0516 O   0  5  0  0  0  0  0  0  0  0  0  0
    6.7038    0.8046   -1.1039 N   0  3  0  0  0  0  0  0  0  0  0  0
    6.4639    0.9928   -2.3037 O   0  0  0  0  0  0  0  0  0  0  0  0
    7.6044    0.0496   -0.6996 O   0  5  0  0  0  0  0  0  0  0  0  0
    5.2226   -2.0347   -0.8132 C   0  0  0  0  0  0  0  0  0  0  0  0
    4.7481   -3.4731   -1.1813 C   0  0  0  0  0  0  0  0  0  0  0  0
    3.9241   -3.5387   -2.4149 N   0  3  0  0  0  0  0  0  0  0  0  0
    3.6067   -4.6451   -2.8768 O   0  0  0  0  0  0  0  0  0  0  0  0
    3.6855   -2.4680   -3.0017 O   0  5  0  0  0  0  0  0  0  0  0  0
    5.9760   -4.2497   -1.5453 N   0  3  0  0  0  0  0  0  0  0  0  0
    6.2833   -5.2623   -0.9023 O   0  0  0  0  0  0  0  0  0  0  0  0
    6.6889   -3.7751   -2.4462 O   0  5  0  0  0  0  0  0  0  0  0  0
    4.1229   -4.1786   -0.0361 N   0  3  0  0  0  0  0  0  0  0  0  0
    4.4639   -3.7977    1.0997 O   0  0  0  0  0  0  0  0  0  0  0  0
    3.3278   -5.1089   -0.2279 O   0  5  0  0  0  0  0  0  0  0  0  0
    0.3273    0.5302   -0.2957 H   0  0  0  0  0  0  0  0  0  0  0  0
    0.4236   -1.1685    0.1173 H   0  0  0  0  0  0  0  0  0  0  0  0
    2.5428    0.8396   -0.0933 H   0  0  0  0  0  0  0  0  0  0  0  0
    5.7389   -0.4141    1.2282 H   0  0  0  0  0  0  0  0  0  0  0  0
    4.2914    0.5229    1.3024 H   0  0  0  0  0  0  0  0  0  0  0  0
    6.0475   -2.1359   -0.0942 H   0  0  0  0  0  0  0  0  0  0  0  0
    5.6647   -1.5661   -1.6999 H   0  0  0  0  0  0  0  0  0  0  0  0
  1  2  1  0  0  0  0
  1 12  1  0  0  0  0
  1 38  1  0  0  0  0
  1 39  1  0  0  0  0
  2  3  1  0  0  0  0
  2  6  1  0  0  0  0
  2  9  1  0  0  0  0
  3  4  2  0  0  0  0
  3  5  1  0  0  0  0
  6  7  2  0  0  0  0
  6  8  1  0  0  0  0
  9 10  2  0  0  0  0
  9 11  1  0  0  0  0
 12 13  1  0  0  0  0
 12 40  1  0  0  0  0
 13 14  2  0  0  0  0
 13 15  1  0  0  0  0
 15 16  1  0  0  0  0
 15 27  1  0  0  0  0
 16 17  1  0  0  0  0
 16 41  1  0  0  0  0
 16 42  1  0  0  0  0
 17 18  1  0  0  0  0
 17 21  1  0  0  0  0
 17 24  1  0  0  0  0
 18 19  2  0  0  0  0
 18 20  1  0  0  0  0
 21 22  2  0  0  0  0
 21 23  1  0  0  0  0
 24 25  2  0  0  0  0
 24 26  1  0  0  0  0
 27 28  1  0  0  0  0
 27 43  1  0  0  0  0
 27 44  1  0  0  0  0
 28 29  1  0  0  0  0
 28 32  1  0  0  0  0
 28 35  1  0  0  0  0
 29 30  2  0  0  0  0
 29 31  1  0  0  0  0
 32 33  2  0  0  0  0
 32 34  1  0  0  0  0
 35 36  2  0  0  0  0
 35 37  1  0  0  0  0
M  CHG  8   3   1   5  -1   6   1   8  -1   9   1  11  -1  18   1  20  -1
M  CHG  8  21   1  23  -1  24   1  26  -1  29   1  31  -1  32   1  34  -1
M  CHG  2  35   1  37  -1
M  END
