
 OpenBabel10072619593D

 53 55  0  0  1  0  0  0  0  0999 V2000
    7.2657    0.6783   -3.2626 C   0  0  0  0  0  0  0  0  0  0  0  0
    6.1887   -0.0372   -2.6688 O   0  0  0  0  0  0  0  0  0  0  0  0
    5.0339    0.6564   -2.4042 C   0  0  0  0  0  0  0  0  0  0  0  0
    4.7763    1.9400   -2.9074 C   0  0  0  0  0  0  0  0  0  0  0  0
    3.5834    2.5958   -2.6073 C   0  0  0  0  0  0  0  0  0  0  0  0
    2.6324    1.9696   -1.8139 C   0  0  0  0  0  0  0  0  0  0  0  0
    2.8711    0.6849   -1.3215 C   0  0  0  0  0  0  0  0  0  0  0  0
    4.0695    0.0023   -1.5987 C   0  0  0  0  0  0  0  0  0  0  0  0
    4.3339   -1.3992   -1.0384 C   0  0  3  0  0  0  0  0  0  0  0  0
    3.3816   -2.4832   -1.5781 C   0  0  0  0  0  0  0  0  0  0  0  0
    2.0963   -2.6549   -0.7731 C   0  0  0  0  0  0  0  0  0  0  0  0
    2.4140   -2.7978    0.6559 N   0  0  0  0  0  0  0  0  0  0  0  0
    3.1287   -1.6415    1.2274 C   0  0  0  0  0  0  0  0  0  0  0  0
    4.4526   -1.4417    0.4958 C   0  0  0  0  0  0  0  0  0  0  0  0
    1.3581   -3.2288    1.4807 C   0  0  0  0  0  0  0  0  0  0  0  0
    1.5553   -4.1657    2.5105 C   0  0  0  0  0  0  0  0  0  0  0  0
    0.5314   -4.5936    3.3703 C   0  0  0  0  0  0  0  0  0  0  0  0
   -0.7510   -4.0664    3.2212 C   0  0  0  0  0  0  0  0  0  0  0  0
   -0.9828   -3.1465    2.1926 C   0  0  0  0  0  0  0  0  0  0  0  0
    0.0542   -2.7310    1.3431 C   0  0  0  0  0  0  0  0  0  0  0  0
   -1.8750   -4.4676    4.0725 C   0  0  0  0  0  0  0  0  0  0  0  0
   -1.7613   -4.7059    5.3870 C   0  0  0  0  0  0  0  0  0  0  0  0
   -2.9574   -5.0715    6.1705 C   0  0  0  0  0  0  0  0  0  0  0  0
   -4.0890   -5.1689    5.7263 O   0  0  0  0  0  0  0  0  0  0  0  0
   -2.5695   -5.2737    7.4533 O   0  0  0  0  0  0  0  0  0  0  0  0
   -3.6387   -5.6470    8.3226 C   0  0  0  0  0  0  0  0  0  0  0  0
    2.8584   -4.7616    2.7066 N   0  3  0  0  0  0  0  0  0  0  0  0
    3.0659   -5.8566    2.1635 O   0  0  0  0  0  0  0  0  0  0  0  0
    3.6301   -4.1823    3.4848 O   0  5  0  0  0  0  0  0  0  0  0  0
    8.1271    0.0051   -3.3131 H   0  0  0  0  0  0  0  0  0  0  0  0
    7.5538    1.5412   -2.6520 H   0  0  0  0  0  0  0  0  0  0  0  0
    7.0228    0.9789   -4.2873 H   0  0  0  0  0  0  0  0  0  0  0  0
    5.4846    2.4572   -3.5466 H   0  0  0  0  0  0  0  0  0  0  0  0
    3.3978    3.5930   -2.9981 H   0  0  0  0  0  0  0  0  0  0  0  0
    1.6998    2.4776   -1.5799 H   0  0  0  0  0  0  0  0  0  0  0  0
    2.0950    0.2365   -0.7134 H   0  0  0  0  0  0  0  0  0  0  0  0
    5.3260   -1.6995   -1.3981 H   0  0  0  0  0  0  0  0  0  0  0  0
    3.9177   -3.4421   -1.5463 H   0  0  0  0  0  0  0  0  0  0  0  0
    3.1370   -2.3011   -2.6317 H   0  0  0  0  0  0  0  0  0  0  0  0
    1.5840   -3.5572   -1.1319 H   0  0  0  0  0  0  0  0  0  0  0  0
    1.4232   -1.8124   -0.9549 H   0  0  0  0  0  0  0  0  0  0  0  0
    3.3531   -1.8030    2.2889 H   0  0  0  0  0  0  0  0  0  0  0  0
    2.5088   -0.7403    1.1778 H   0  0  0  0  0  0  0  0  0  0  0  0
    5.1002   -2.2925    0.7509 H   0  0  0  0  0  0  0  0  0  0  0  0
    4.9571   -0.5458    0.8775 H   0  0  0  0  0  0  0  0  0  0  0  0
    0.7472   -5.3365    4.1344 H   0  0  0  0  0  0  0  0  0  0  0  0
   -1.9757   -2.7227    2.0497 H   0  0  0  0  0  0  0  0  0  0  0  0
   -0.1809   -1.9936    0.5804 H   0  0  0  0  0  0  0  0  0  0  0  0
   -2.8473   -4.5334    3.5853 H   0  0  0  0  0  0  0  0  0  0  0  0
   -0.8259   -4.6264    5.9264 H   0  0  0  0  0  0  0  0  0  0  0  0
   -3.2319   -5.7559    9.3318 H   0  0  0  0  0  0  0  0  0  0  0  0
   -4.0630   -6.6075    8.0124 H   0  0  0  0  0  0  0  0  0  0  0  0
   -4.4088   -4.8691    8.3425 H   0  0  0  0  0  0  0  0  0  0  0  0
  1  2  1  0  0  0  0
  1 30  1  0  0  0  0
  1 31  1  0  0  0  0
  1 32  1  0  0  0  0
  2  3  1  0  0  0  0
  3  4  2  0  0  0  0
  3  8  1  0  0  0  0
  4  5  1  0  0  0  0
  4 33  1  0  0  0  0
  5  6  2  0  0  0  0
  5 34  1  0  0  0  0
  6  7  1  0  0  0  0
  6 35  1  0  0  0  0
  7  8  2  0  0  0  0
  7 36  1  0  0  0  0
  8  9  1  0  0  0  0
  9 10  1  0  0  0  0
  9 14  1  0  0  0  0
  9 37  1  0  0  0  0
 10 11  1  0  0  0  0
 10 38  1  0  0  0  0
 10 39  1  0  0  0  0
 11 12  1  0  0  0  0
 11 40  1  0  0  0  0
 11 41  1  0  0  0  0
 12 13  1  0  0  0  0
 12 15  1  0  0  0  0
 13 14  1  0  0  0  0
 13 42  1  0  0  0  0
 13 43  1  0  0  0  0
 14 44  1  0  0  0  0
 14 45  1  0  0  0  0
 15 16  2  0  0  0  0
 15 20  1  0  0  0  0
 16 17  1  0  0  0  0
 16 27  1  0  0  0  0
 17 18  2  0  0  0  0
 17 46  1  0  0  0  0
 18 19  1  0  0  0  0
 18 21  1  0  0  0  0
 19 20  2  0  0  0  0
 19 47  1  0  0  0  0
 20 48  1  0  0  0  0
 21 22  2  0  0  0  0
 21 49  1  0  0  0  0
 22 23  1  0  0  0  0
 22 50  1  0  0  0  0
 23 24  2  0  0  0  0
 23 25  1  0  0  0  0
 25 26  1  0  0  0  0
 26 51  1  0  0  0  0
 26 52  1  0  0  0  0
 26 53  1  0  0  0  0
 27 28  2  0  0  0  0
 27 29  1  0  0  0  0
M  CHG  2  27   1  29  -1
M  END
