
 OpenBabel10072619513D

 97101  0  0  1  0  0  0  0  0999 V2000
    8.4849    5.7845   -3.1879 C   0  0  0  0  0  0  0  0  0  0  0  0
    7.9252    5.0420   -4.4012 C   0  0  1  0  0  0  0  0  0  0  0  0
    7.9996    5.9036   -5.6737 C   0  0  1  0  0  0  0  0  0  0  0  0
    7.7637    5.0693   -6.9471 C   0  0  2  0  0  0  0  0  0  0  0  0
    8.5963    3.7754   -6.9174 C   0  0  2  0  0  0  0  0  0  0  0  0
    8.2688    3.0041   -5.6210 C   0  0  1  0  0  0  0  0  0  0  0  0
    8.6845    3.8333   -4.5255 O   0  0  0  0  0  0  0  0  0  0  0  0
    6.8936    2.6569   -5.4722 O   0  0  0  0  0  0  0  0  0  0  0  0
    6.3441    1.7639   -6.4431 C   0  0  2  0  0  0  0  0  0  0  0  0
    4.8144    1.7625   -6.2636 C   0  0  2  0  0  0  0  0  0  0  0  0
    4.3625    0.8590   -5.1001 C   0  0  1  0  0  0  0  0  0  0  0  0
    4.8539   -0.4711   -5.3076 O   0  0  0  0  0  0  0  0  0  0  0  0
    6.2824   -0.6143   -5.3991 C   0  0  1  0  0  0  0  0  0  0  0  0
    6.9120    0.3278   -6.4449 C   0  0  1  0  0  0  0  0  0  0  0  0
    6.5714   -0.1996   -7.7615 O   0  0  0  0  0  0  0  0  0  0  0  0
    7.3835   -1.1643   -8.2526 C   0  0  0  0  0  0  0  0  0  0  0  0
    8.3692   -1.6180   -7.6896 O   0  0  0  0  0  0  0  0  0  0  0  0
    6.8884   -1.6771   -9.5441 C   0  0  0  0  0  0  0  0  0  0  0  0
    5.8982   -1.1015  -10.2499 C   0  0  0  0  0  0  0  0  0  0  0  0
    5.3353   -1.6853  -11.4742 C   0  0  0  0  0  0  0  0  0  0  0  0
    3.9527   -1.5727  -11.6949 C   0  0  0  0  0  0  0  0  0  0  0  0
    3.3878   -2.1391  -12.8330 C   0  0  0  0  0  0  0  0  0  0  0  0
    4.1853   -2.8025  -13.7588 C   0  0  0  0  0  0  0  0  0  0  0  0
    5.5545   -2.8936  -13.5748 C   0  0  0  0  0  0  0  0  0  0  0  0
    6.1309   -2.3311  -12.4336 C   0  0  0  0  0  0  0  0  0  0  0  0
    3.6216   -3.3724  -14.8628 O   0  0  0  0  0  0  0  0  0  0  0  0
    2.0454   -2.0762  -13.0867 O   0  0  0  0  0  0  0  0  0  0  0  0
    6.9893   -0.6210   -4.0345 C   0  0  0  0  0  0  0  0  0  0  0  0
    7.2848    0.6723   -3.5401 O   0  0  0  0  0  0  0  0  0  0  0  0
    4.6905    1.2998   -3.7881 O   0  0  0  0  0  0  0  0  0  0  0  0
    4.1037    2.5363   -3.3604 C   0  0  0  0  0  0  0  0  0  0  0  0
    2.5686    2.5886   -3.3349 C   0  0  0  0  0  0  0  0  0  0  0  0
    1.9398    1.7420   -2.2524 C   0  0  0  0  0  0  0  0  0  0  0  0
    1.9639    0.3420   -2.3345 C   0  0  0  0  0  0  0  0  0  0  0  0
    1.3358   -0.4201   -1.3560 C   0  0  0  0  0  0  0  0  0  0  0  0
    0.6901    0.1939   -0.2881 C   0  0  0  0  0  0  0  0  0  0  0  0
    0.6624    1.5742   -0.1795 C   0  0  0  0  0  0  0  0  0  0  0  0
    1.2839    2.3484   -1.1646 C   0  0  0  0  0  0  0  0  0  0  0  0
    0.0670   -0.5681    0.6577 O   0  0  0  0  0  0  0  0  0  0  0  0
    1.3167   -1.7869   -1.4102 O   0  0  0  0  0  0  0  0  0  0  0  0
    4.1795    1.3297   -7.4819 O   0  0  0  0  0  0  0  0  0  0  0  0
    9.9990    4.0628   -6.9973 O   0  0  0  0  0  0  0  0  0  0  0  0
    8.0157    5.9571   -8.0547 O   0  0  0  0  0  0  0  0  0  0  0  0
    8.1018    5.3663   -9.3417 C   0  0  1  0  0  0  0  0  0  0  0  0
    6.7822    4.7852   -9.8595 C   0  0  1  0  0  0  0  0  0  0  0  0
    6.0586    6.0242  -10.3807 C   0  0  2  0  0  0  0  0  0  0  0  0
    7.2161    6.8719  -10.9082 C   0  0  0  0  0  0  0  0  0  0  0  0
    8.4294    6.3933  -10.2970 O   0  0  0  0  0  0  0  0  0  0  0  0
    5.2656    6.7690   -9.2975 C   0  0  0  0  0  0  0  0  0  0  0  0
    4.4899    7.8080   -9.8983 O   0  0  0  0  0  0  0  0  0  0  0  0
    5.1332    5.6771  -11.4273 O   0  0  0  0  0  0  0  0  0  0  0  0
    7.0161    3.8868  -10.9691 O   0  0  0  0  0  0  0  0  0  0  0  0
    7.0056    6.9368   -5.6302 O   0  0  0  0  0  0  0  0  0  0  0  0
    7.9455    6.7151   -2.9897 H   0  0  0  0  0  0  0  0  0  0  0  0
    9.5468    6.0194   -3.3247 H   0  0  0  0  0  0  0  0  0  0  0  0
    8.4264    5.1502   -2.2954 H   0  0  0  0  0  0  0  0  0  0  0  0
    6.8804    4.7959   -4.1729 H   0  0  0  0  0  0  0  0  0  0  0  0
    8.9749    6.4063   -5.7359 H   0  0  0  0  0  0  0  0  0  0  0  0
    6.6975    4.8114   -6.9927 H   0  0  0  0  0  0  0  0  0  0  0  0
    8.3617    3.1632   -7.7920 H   0  0  0  0  0  0  0  0  0  0  0  0
    8.8962    2.1104   -5.5570 H   0  0  0  0  0  0  0  0  0  0  0  0
    6.5218    2.1958   -7.4353 H   0  0  0  0  0  0  0  0  0  0  0  0
    4.4776    2.7877   -6.0913 H   0  0  0  0  0  0  0  0  0  0  0  0
    3.2771    0.7359   -5.1676 H   0  0  0  0  0  0  0  0  0  0  0  0
    6.3913   -1.6441   -5.7604 H   0  0  0  0  0  0  0  0  0  0  0  0
    8.0022    0.3395   -6.3397 H   0  0  0  0  0  0  0  0  0  0  0  0
    7.3672   -2.5934   -9.8696 H   0  0  0  0  0  0  0  0  0  0  0  0
    5.4185   -0.1889   -9.9065 H   0  0  0  0  0  0  0  0  0  0  0  0
    3.3256   -1.0638  -10.9695 H   0  0  0  0  0  0  0  0  0  0  0  0
    6.1692   -3.3989  -14.3126 H   0  0  0  0  0  0  0  0  0  0  0  0
    7.2077   -2.4056  -12.3074 H   0  0  0  0  0  0  0  0  0  0  0  0
    2.6644   -3.1952  -14.7689 H   0  0  0  0  0  0  0  0  0  0  0  0
    1.6190   -1.5691  -12.3750 H   0  0  0  0  0  0  0  0  0  0  0  0
    6.3912   -1.1541   -3.2895 H   0  0  0  0  0  0  0  0  0  0  0  0
    7.9454   -1.1475   -4.1249 H   0  0  0  0  0  0  0  0  0  0  0  0
    6.4242    1.0957   -3.3408 H   0  0  0  0  0  0  0  0  0  0  0  0
    4.4865    3.3476   -3.9881 H   0  0  0  0  0  0  0  0  0  0  0  0
    4.4863    2.7275   -2.3507 H   0  0  0  0  0  0  0  0  0  0  0  0
    2.1356    2.3004   -4.2993 H   0  0  0  0  0  0  0  0  0  0  0  0
    2.2709    3.6328   -3.1748 H   0  0  0  0  0  0  0  0  0  0  0  0
    2.4607   -0.1488   -3.1635 H   0  0  0  0  0  0  0  0  0  0  0  0
    0.1556    2.0454    0.6579 H   0  0  0  0  0  0  0  0  0  0  0  0
    1.2415    3.4321   -1.0788 H   0  0  0  0  0  0  0  0  0  0  0  0
    0.1990   -1.4868    0.3486 H   0  0  0  0  0  0  0  0  0  0  0  0
    1.8081   -2.0642   -2.2023 H   0  0  0  0  0  0  0  0  0  0  0  0
    4.3271    0.3657   -7.5413 H   0  0  0  0  0  0  0  0  0  0  0  0
   10.3080    4.2650   -6.0914 H   0  0  0  0  0  0  0  0  0  0  0  0
    8.9259    4.6489   -9.3832 H   0  0  0  0  0  0  0  0  0  0  0  0
    6.2038    4.2336   -9.1145 H   0  0  0  0  0  0  0  0  0  0  0  0
    7.1121    7.9351  -10.6733 H   0  0  0  0  0  0  0  0  0  0  0  0
    7.3288    6.7819  -11.9937 H   0  0  0  0  0  0  0  0  0  0  0  0
    4.5619    6.0949   -8.7968 H   0  0  0  0  0  0  0  0  0  0  0  0
    5.9055    7.2283   -8.5408 H   0  0  0  0  0  0  0  0  0  0  0  0
    4.0660    7.3929  -10.6776 H   0  0  0  0  0  0  0  0  0  0  0  0
    5.4599    4.8368  -11.8111 H   0  0  0  0  0  0  0  0  0  0  0  0
    7.7704    4.2410  -11.4829 H   0  0  0  0  0  0  0  0  0  0  0  0
    7.1006    7.4211   -6.4738 H   0  0  0  0  0  0  0  0  0  0  0  0
  1 54  1  0  0  0  0
  1 55  1  0  0  0  0
  1 56  1  0  0  0  0
  2  3  1  0  0  0  0
  2  7  1  0  0  0  0
  2  1  1  0  0  0  0
  2 57  1  1  0  0  0
  3  4  1  0  0  0  0
  3 53  1  0  0  0  0
  3 58  1  6  0  0  0
  4  5  1  0  0  0  0
  4 43  1  0  0  0  0
  4 59  1  6  0  0  0
  5  6  1  0  0  0  0
  5 42  1  0  0  0  0
  5 60  1  6  0  0  0
  6  7  1  0  0  0  0
  6  8  1  0  0  0  0
  6 61  1  1  0  0  0
  8  9  1  0  0  0  0
  9 10  1  0  0  0  0
  9 14  1  0  0  0  0
  9 62  1  6  0  0  0
 10 11  1  0  0  0  0
 10 41  1  0  0  0  0
 10 63  1  1  0  0  0
 11 12  1  0  0  0  0
 11 30  1  0  0  0  0
 11 64  1  6  0  0  0
 12 13  1  0  0  0  0
 13 14  1  0  0  0  0
 13 28  1  0  0  0  0
 13 65  1  6  0  0  0
 14 15  1  0  0  0  0
 14 66  1  1  0  0  0
 15 16  1  0  0  0  0
 16 17  2  0  0  0  0
 16 18  1  0  0  0  0
 18 19  2  0  0  0  0
 18 67  1  0  0  0  0
 19 20  1  0  0  0  0
 19 68  1  0  0  0  0
 20 21  2  0  0  0  0
 20 25  1  0  0  0  0
 21 22  1  0  0  0  0
 21 69  1  0  0  0  0
 22 23  2  0  0  0  0
 22 27  1  0  0  0  0
 23 24  1  0  0  0  0
 23 26  1  0  0  0  0
 24 25  2  0  0  0  0
 24 70  1  0  0  0  0
 25 71  1  0  0  0  0
 26 72  1  0  0  0  0
 27 73  1  0  0  0  0
 28 29  1  0  0  0  0
 28 74  1  0  0  0  0
 28 75  1  0  0  0  0
 29 76  1  0  0  0  0
 30 31  1  0  0  0  0
 31 32  1  0  0  0  0
 31 77  1  0  0  0  0
 31 78  1  0  0  0  0
 32 33  1  0  0  0  0
 32 79  1  0  0  0  0
 32 80  1  0  0  0  0
 33 34  2  0  0  0  0
 33 38  1  0  0  0  0
 34 35  1  0  0  0  0
 34 81  1  0  0  0  0
 35 36  2  0  0  0  0
 35 40  1  0  0  0  0
 36 37  1  0  0  0  0
 36 39  1  0  0  0  0
 37 38  2  0  0  0  0
 37 82  1  0  0  0  0
 38 83  1  0  0  0  0
 39 84  1  0  0  0  0
 40 85  1  0  0  0  0
 41 86  1  0  0  0  0
 42 87  1  0  0  0  0
 44 45  1  0  0  0  0
 44 48  1  0  0  0  0
 44 43  1  0  0  0  0
 44 88  1  6  0  0  0
 45 46  1  0  0  0  0
 45 52  1  0  0  0  0
 45 89  1  1  0  0  0
 46 47  1  0  0  0  0
 46 51  1  6  0  0  0
 46 49  1  0  0  0  0
 47 48  1  0  0  0  0
 47 90  1  0  0  0  0
 47 91  1  0  0  0  0
 49 50  1  0  0  0  0
 49 92  1  0  0  0  0
 49 93  1  0  0  0  0
 50 94  1  0  0  0  0
 51 95  1  0  0  0  0
 52 96  1  0  0  0  0
 53 97  1  0  0  0  0
M  END
