
 OpenBabel10072620093D

 45 47  0  0  0  0  0  0  0  0999 V2000
   -7.8278   -2.7040   -3.9201 C   0  0  0  0  0  0  0  0  0  0  0  0
   -6.7049   -2.0948   -3.1323 C   0  0  0  0  0  0  0  0  0  0  0  0
   -5.8817   -1.1080   -3.6888 C   0  0  0  0  0  0  0  0  0  0  0  0
   -4.8011   -0.5972   -2.9628 C   0  0  0  0  0  0  0  0  0  0  0  0
   -4.5204   -1.0676   -1.6716 C   0  0  0  0  0  0  0  0  0  0  0  0
   -5.3517   -2.0509   -1.1159 C   0  0  0  0  0  0  0  0  0  0  0  0
   -6.4319   -2.5604   -1.8402 C   0  0  0  0  0  0  0  0  0  0  0  0
   -3.3201   -0.5669   -0.9120 C   0  0  0  0  0  0  0  0  0  0  0  0
   -3.4456    0.8166   -0.4486 N   0  0  0  0  0  0  0  0  0  0  0  0
   -2.6123    1.8335   -0.8542 C   0  0  0  0  0  0  0  0  0  0  0  0
   -2.9806    2.9886   -0.2043 C   0  0  0  0  0  0  0  0  0  0  0  0
   -4.0669    2.6607    0.6364 C   0  0  0  0  0  0  0  0  0  0  0  0
   -4.3320    1.3091    0.4918 C   0  0  0  0  0  0  0  0  0  0  0  0
   -5.3564    0.5572    1.1744 C   0  0  0  0  0  0  0  0  0  0  0  0
   -5.1537   -0.3525    2.0806 N   0  0  0  0  0  0  0  0  0  0  0  0
   -3.8678   -0.5791    2.4861 N   0  0  0  0  0  0  0  0  0  0  0  0
   -3.4922   -1.7934    3.0798 C   0  0  0  0  0  0  0  0  0  0  0  0
   -4.5992   -2.8705    3.7226 S   0  0  0  0  0  0  0  0  0  0  0  0
   -2.1074   -1.9350    2.9721 N   0  0  0  0  0  0  0  0  0  0  0  0
   -1.2713   -3.0730    2.9098 C   0  0  0  0  0  0  0  0  0  0  0  0
   -1.6888   -4.3971    3.0213 C   0  0  0  0  0  0  0  0  0  0  0  0
   -0.7803   -5.4341    2.8204 C   0  0  0  0  0  0  0  0  0  0  0  0
    0.5460   -5.1826    2.4948 C   0  0  0  0  0  0  0  0  0  0  0  0
    0.9802   -3.8662    2.3871 C   0  0  0  0  0  0  0  0  0  0  0  0
    0.0793   -2.8204    2.6073 C   0  0  0  0  0  0  0  0  0  0  0  0
   -1.1973   -6.7024    2.9363 F   0  0  0  0  0  0  0  0  0  0  0  0
   -8.1353   -2.0603   -4.7521 H   0  0  0  0  0  0  0  0  0  0  0  0
   -8.7031   -2.8555   -3.2787 H   0  0  0  0  0  0  0  0  0  0  0  0
   -7.5114   -3.6727   -4.3218 H   0  0  0  0  0  0  0  0  0  0  0  0
   -6.0674   -0.7383   -4.6957 H   0  0  0  0  0  0  0  0  0  0  0  0
   -4.1700    0.1631   -3.4197 H   0  0  0  0  0  0  0  0  0  0  0  0
   -5.1653   -2.4407   -0.1151 H   0  0  0  0  0  0  0  0  0  0  0  0
   -7.0555   -3.3329   -1.3924 H   0  0  0  0  0  0  0  0  0  0  0  0
   -2.4387   -0.6217   -1.5629 H   0  0  0  0  0  0  0  0  0  0  0  0
   -3.0999   -1.1842   -0.0364 H   0  0  0  0  0  0  0  0  0  0  0  0
   -1.8241    1.6583   -1.5750 H   0  0  0  0  0  0  0  0  0  0  0  0
   -2.5155    3.9592   -0.3238 H   0  0  0  0  0  0  0  0  0  0  0  0
   -4.5909    3.3360    1.3029 H   0  0  0  0  0  0  0  0  0  0  0  0
   -6.4013    0.7791    0.8986 H   0  0  0  0  0  0  0  0  0  0  0  0
   -3.1582    0.0534    2.1387 H   0  0  0  0  0  0  0  0  0  0  0  0
   -1.6236   -1.0668    2.7909 H   0  0  0  0  0  0  0  0  0  0  0  0
   -2.7046   -4.6865    3.2488 H   0  0  0  0  0  0  0  0  0  0  0  0
    1.2223   -6.0118    2.3167 H   0  0  0  0  0  0  0  0  0  0  0  0
    2.0134   -3.6504    2.1271 H   0  0  0  0  0  0  0  0  0  0  0  0
    0.4482   -1.8000    2.5155 H   0  0  0  0  0  0  0  0  0  0  0  0
  1  2  1  0  0  0  0
  1 27  1  0  0  0  0
  1 28  1  0  0  0  0
  1 29  1  0  0  0  0
  2  3  2  0  0  0  0
  2  7  1  0  0  0  0
  3  4  1  0  0  0  0
  3 30  1  0  0  0  0
  4  5  2  0  0  0  0
  4 31  1  0  0  0  0
  5  6  1  0  0  0  0
  5  8  1  0  0  0  0
  6  7  2  0  0  0  0
  6 32  1  0  0  0  0
  7 33  1  0  0  0  0
  8  9  1  0  0  0  0
  8 34  1  0  0  0  0
  8 35  1  0  0  0  0
  9 10  1  0  0  0  0
  9 13  1  0  0  0  0
 10 11  2  0  0  0  0
 10 36  1  0  0  0  0
 11 12  1  0  0  0  0
 11 37  1  0  0  0  0
 12 13  2  0  0  0  0
 12 38  1  0  0  0  0
 13 14  1  0  0  0  0
 14 15  2  0  0  0  0
 14 39  1  0  0  0  0
 15 16  1  0  0  0  0
 16 17  1  0  0  0  0
 16 40  1  0  0  0  0
 17 18  2  0  0  0  0
 17 19  1  0  0  0  0
 19 20  1  0  0  0  0
 19 41  1  0  0  0  0
 20 21  2  0  0  0  0
 20 25  1  0  0  0  0
 21 22  1  0  0  0  0
 21 42  1  0  0  0  0
 22 23  2  0  0  0  0
 22 26  1  0  0  0  0
 23 24  1  0  0  0  0
 23 43  1  0  0  0  0
 24 25  2  0  0  0  0
 24 44  1  0  0  0  0
 25 45  1  0  0  0  0
M  END
