
 OpenBabel10072616333D

 54 58  0  0  0  0  0  0  0  0999 V2000
    0.5371   -1.5445   -0.2357 C   0  0  0  0  0  0  0  0  0  0  0  0
   -0.9879   -1.3363   -0.0849 C   0  0  0  0  0  0  0  0  0  0  0  0
   -1.2792   -0.0830    0.6437 N   0  0  0  0  0  0  0  0  0  0  0  0
   -0.6692    1.0896   -0.0281 C   0  0  0  0  0  0  0  0  0  0  0  0
    0.8575    0.9075   -0.1260 C   0  0  0  0  0  0  0  0  0  0  0  0
    1.2293   -0.3598   -0.8143 N   0  0  0  0  0  0  0  0  0  0  0  0
    2.4946   -0.4670   -1.3796 C   0  0  0  0  0  0  0  0  0  0  0  0
    3.0446   -1.5000   -2.0333 C   0  0  0  0  0  0  0  0  0  0  0  0
    4.3747   -1.4210   -2.5024 C   0  0  0  0  0  0  0  0  0  0  0  0
    4.7940   -1.2878   -3.7459 N   0  0  0  0  0  0  0  0  0  0  0  0
    6.1417   -1.0851   -3.6853 N   0  0  0  0  0  0  0  0  0  0  0  0
    6.5710   -1.1088   -2.4356 N   0  0  0  0  0  0  0  0  0  0  0  0
    5.4920   -1.4030   -1.6620 N   0  0  0  0  0  0  0  0  0  0  0  0
    5.6551   -1.6515   -0.2688 C   0  0  0  0  0  0  0  0  0  0  0  0
    6.8547   -1.2609    0.3547 C   0  0  0  0  0  0  0  0  0  0  0  0
    7.0637   -1.4759    1.7289 C   0  0  0  0  0  0  0  0  0  0  0  0
    8.2525   -1.0782    2.3633 C   0  0  0  0  0  0  0  0  0  0  0  0
    8.4405   -1.3010    3.7293 C   0  0  0  0  0  0  0  0  0  0  0  0
    7.4429   -1.9195    4.4777 C   0  0  0  0  0  0  0  0  0  0  0  0
    6.2563   -2.3194    3.8629 C   0  0  0  0  0  0  0  0  0  0  0  0
    6.0548   -2.1053    2.4907 C   0  0  0  0  0  0  0  0  0  0  0  0
    4.8727   -2.5134    1.8604 C   0  0  0  0  0  0  0  0  0  0  0  0
    4.6760   -2.2975    0.4930 C   0  0  0  0  0  0  0  0  0  0  0  0
   -2.5552    0.1381    1.1671 C   0  0  0  0  0  0  0  0  0  0  0  0
   -2.7479    1.1549    2.1185 C   0  0  0  0  0  0  0  0  0  0  0  0
   -3.9966    1.4092    2.6914 C   0  0  0  0  0  0  0  0  0  0  0  0
   -5.0926    0.6332    2.3326 C   0  0  0  0  0  0  0  0  0  0  0  0
   -4.9380   -0.4093    1.4122 C   0  0  0  0  0  0  0  0  0  0  0  0
   -3.6717   -0.6405    0.8374 C   0  0  0  0  0  0  0  0  0  0  0  0
   -6.1038   -1.2755    1.0112 C   0  0  0  0  0  0  0  0  0  0  0  0
   -7.1883   -1.1379    1.8240 F   0  0  0  0  0  0  0  0  0  0  0  0
   -6.5445   -1.0079   -0.2493 F   0  0  0  0  0  0  0  0  0  0  0  0
   -5.7966   -2.6034    1.0241 F   0  0  0  0  0  0  0  0  0  0  0  0
    0.6959   -2.4317   -0.8590 H   0  0  0  0  0  0  0  0  0  0  0  0
    0.9745   -1.7519    0.7494 H   0  0  0  0  0  0  0  0  0  0  0  0
   -1.3876   -2.2012    0.4585 H   0  0  0  0  0  0  0  0  0  0  0  0
   -1.4513   -1.3098   -1.0793 H   0  0  0  0  0  0  0  0  0  0  0  0
   -0.8581    2.0264    0.5076 H   0  0  0  0  0  0  0  0  0  0  0  0
   -1.0971    1.1938   -1.0348 H   0  0  0  0  0  0  0  0  0  0  0  0
    1.2979    0.9054    0.8793 H   0  0  0  0  0  0  0  0  0  0  0  0
    1.2695    1.7650   -0.6726 H   0  0  0  0  0  0  0  0  0  0  0  0
    3.0750    0.4484   -1.2506 H   0  0  0  0  0  0  0  0  0  0  0  0
    2.4752   -2.3903   -2.2687 H   0  0  0  0  0  0  0  0  0  0  0  0
    7.6362   -0.7627   -0.2188 H   0  0  0  0  0  0  0  0  0  0  0  0
    9.0449   -0.5940    1.7958 H   0  0  0  0  0  0  0  0  0  0  0  0
    9.3655   -0.9886    4.2073 H   0  0  0  0  0  0  0  0  0  0  0  0
    7.5862   -2.0890    5.5421 H   0  0  0  0  0  0  0  0  0  0  0  0
    5.4893   -2.8043    4.4631 H   0  0  0  0  0  0  0  0  0  0  0  0
    4.0933   -3.0136    2.4329 H   0  0  0  0  0  0  0  0  0  0  0  0
    3.7585   -2.6859    0.0645 H   0  0  0  0  0  0  0  0  0  0  0  0
   -1.9030    1.7533    2.4529 H   0  0  0  0  0  0  0  0  0  0  0  0
   -4.1049    2.2019    3.4273 H   0  0  0  0  0  0  0  0  0  0  0  0
   -6.0635    0.8359    2.7814 H   0  0  0  0  0  0  0  0  0  0  0  0
   -3.5827   -1.4452    0.1115 H   0  0  0  0  0  0  0  0  0  0  0  0
  1  2  1  0  0  0  0
  1  6  1  0  0  0  0
  1 34  1  0  0  0  0
  1 35  1  0  0  0  0
  2  3  1  0  0  0  0
  2 36  1  0  0  0  0
  2 37  1  0  0  0  0
  3  4  1  0  0  0  0
  3 24  1  0  0  0  0
  4  5  1  0  0  0  0
  4 38  1  0  0  0  0
  4 39  1  0  0  0  0
  5  6  1  0  0  0  0
  5 40  1  0  0  0  0
  5 41  1  0  0  0  0
  6  7  1  0  0  0  0
  7  8  2  0  0  0  0
  7 42  1  0  0  0  0
  8  9  1  0  0  0  0
  8 43  1  0  0  0  0
  9 10  2  0  0  0  0
  9 13  1  0  0  0  0
 10 11  1  0  0  0  0
 11 12  2  0  0  0  0
 12 13  1  0  0  0  0
 13 14  1  0  0  0  0
 14 15  2  0  0  0  0
 14 23  1  0  0  0  0
 15 16  1  0  0  0  0
 15 44  1  0  0  0  0
 16 17  2  0  0  0  0
 16 21  1  0  0  0  0
 17 18  1  0  0  0  0
 17 45  1  0  0  0  0
 18 19  2  0  0  0  0
 18 46  1  0  0  0  0
 19 20  1  0  0  0  0
 19 47  1  0  0  0  0
 20 21  2  0  0  0  0
 20 48  1  0  0  0  0
 21 22  1  0  0  0  0
 22 23  2  0  0  0  0
 22 49  1  0  0  0  0
 23 50  1  0  0  0  0
 24 25  2  0  0  0  0
 24 29  1  0  0  0  0
 25 26  1  0  0  0  0
 25 51  1  0  0  0  0
 26 27  2  0  0  0  0
 26 52  1  0  0  0  0
 27 28  1  0  0  0  0
 27 53  1  0  0  0  0
 28 29  2  0  0  0  0
 28 30  1  0  0  0  0
 29 54  1  0  0  0  0
 30 31  1  0  0  0  0
 30 32  1  0  0  0  0
 30 33  1  0  0  0  0
M  END
