
 OpenBabel10072620213D

 76 76  0  0  0  0  0  0  0  0999 V2000
    9.1807    6.0219  -15.1590 C   0  0  0  0  0  0  0  0  0  0  0  0
    8.7278    5.5745  -13.7778 C   0  0  0  0  0  0  0  0  0  0  0  0
    9.7882    4.7111  -13.0950 C   0  0  0  0  0  0  0  0  0  0  0  0
    9.3333    4.2530  -11.7080 C   0  0  0  0  0  0  0  0  0  0  0  0
   10.4168    3.4233  -11.0185 C   0  0  0  0  0  0  0  0  0  0  0  0
    9.9844    2.9768   -9.6203 C   0  0  0  0  0  0  0  0  0  0  0  0
   11.0997    2.1862   -8.9340 C   0  0  0  0  0  0  0  0  0  0  0  0
   10.7126    1.7716   -7.5144 C   0  0  0  0  0  0  0  0  0  0  0  0
   11.8321    1.0188   -6.8535 C   0  0  0  0  0  0  0  0  0  0  0  0
   12.7861    1.5245   -6.0577 C   0  0  0  0  0  0  0  0  0  0  0  0
   12.9735    2.9636   -5.6636 C   0  0  0  0  0  0  0  0  0  0  0  0
   12.8961    3.1939   -4.1496 C   0  0  0  0  0  0  0  0  0  0  0  0
   13.9695    2.4839   -3.3135 C   0  0  0  0  0  0  0  0  0  0  0  0
   15.3919    2.9187   -3.6685 C   0  0  0  0  0  0  0  0  0  0  0  0
   16.4372    2.2165   -2.7999 C   0  0  0  0  0  0  0  0  0  0  0  0
   17.8438    2.6965   -3.1605 C   0  0  0  0  0  0  0  0  0  0  0  0
   18.9221    1.9048   -2.4244 C   0  0  0  0  0  0  0  0  0  0  0  0
   20.3135    2.4161   -2.7818 C   0  0  0  0  0  0  0  0  0  0  0  0
   21.3470    1.5701   -2.2192 N   0  0  0  0  0  0  0  0  0  0  0  0
   22.6673    1.8123   -2.5560 C   0  0  0  0  0  0  0  0  0  0  0  0
   23.0038    2.6745   -3.3546 O   0  0  0  0  0  0  0  0  0  0  0  0
   23.4931    0.9214   -1.9022 N   0  0  0  0  0  0  0  0  0  0  0  0
   24.9062    0.9500   -1.9353 C   0  0  0  0  0  0  0  0  0  0  0  0
   25.6817    2.1153   -1.8082 C   0  0  0  0  0  0  0  0  0  0  0  0
   27.0827    2.0060   -1.8913 C   0  0  0  0  0  0  0  0  0  0  0  0
   27.7075    0.7662   -2.0382 C   0  0  0  0  0  0  0  0  0  0  0  0
   26.9449   -0.3986   -2.1031 C   0  0  0  0  0  0  0  0  0  0  0  0
   25.5481   -0.2965   -2.0422 C   0  0  0  0  0  0  0  0  0  0  0  0
   27.5937   -1.7447   -2.2328 C   0  0  0  0  0  0  0  0  0  0  0  0
   25.1126    3.4855   -1.5622 C   0  0  0  0  0  0  0  0  0  0  0  0
    8.4123    6.6447  -15.6275 H   0  0  0  0  0  0  0  0  0  0  0  0
    9.3634    5.1612  -15.8102 H   0  0  0  0  0  0  0  0  0  0  0  0
   10.1027    6.6091  -15.0994 H   0  0  0  0  0  0  0  0  0  0  0  0
    7.7910    5.0128  -13.8708 H   0  0  0  0  0  0  0  0  0  0  0  0
    8.5177    6.4592  -13.1654 H   0  0  0  0  0  0  0  0  0  0  0  0
   10.7206    5.2815  -13.0050 H   0  0  0  0  0  0  0  0  0  0  0  0
   10.0059    3.8347  -13.7174 H   0  0  0  0  0  0  0  0  0  0  0  0
    8.4164    3.6588  -11.7979 H   0  0  0  0  0  0  0  0  0  0  0  0
    9.0934    5.1280  -11.0921 H   0  0  0  0  0  0  0  0  0  0  0  0
   11.3369    4.0161  -10.9451 H   0  0  0  0  0  0  0  0  0  0  0  0
   10.6502    2.5417  -11.6277 H   0  0  0  0  0  0  0  0  0  0  0  0
    9.0812    2.3585   -9.6905 H   0  0  0  0  0  0  0  0  0  0  0  0
    9.7308    3.8556   -9.0154 H   0  0  0  0  0  0  0  0  0  0  0  0
   12.0100    2.7988   -8.9019 H   0  0  0  0  0  0  0  0  0  0  0  0
   11.3356    1.2960   -9.5306 H   0  0  0  0  0  0  0  0  0  0  0  0
    9.8286    1.1234   -7.5410 H   0  0  0  0  0  0  0  0  0  0  0  0
   10.4262    2.6482   -6.9239 H   0  0  0  0  0  0  0  0  0  0  0  0
   11.8601   -0.0503   -7.0642 H   0  0  0  0  0  0  0  0  0  0  0  0
   13.5385    0.8324   -5.6818 H   0  0  0  0  0  0  0  0  0  0  0  0
   12.2269    3.6032   -6.1449 H   0  0  0  0  0  0  0  0  0  0  0  0
   13.9387    3.3070   -6.0501 H   0  0  0  0  0  0  0  0  0  0  0  0
   11.9090    2.8771   -3.7902 H   0  0  0  0  0  0  0  0  0  0  0  0
   12.9612    4.2730   -3.9609 H   0  0  0  0  0  0  0  0  0  0  0  0
   13.8738    1.3979   -3.4202 H   0  0  0  0  0  0  0  0  0  0  0  0
   13.7798    2.7053   -2.2558 H   0  0  0  0  0  0  0  0  0  0  0  0
   15.4818    4.0053   -3.5524 H   0  0  0  0  0  0  0  0  0  0  0  0
   15.6041    2.6869   -4.7178 H   0  0  0  0  0  0  0  0  0  0  0  0
   16.3640    1.1318   -2.9459 H   0  0  0  0  0  0  0  0  0  0  0  0
   16.2407    2.4163   -1.7401 H   0  0  0  0  0  0  0  0  0  0  0  0
   17.9385    3.7625   -2.9207 H   0  0  0  0  0  0  0  0  0  0  0  0
   17.9988    2.5959   -4.2417 H   0  0  0  0  0  0  0  0  0  0  0  0
   18.8403    0.8428   -2.6861 H   0  0  0  0  0  0  0  0  0  0  0  0
   18.7697    1.9750   -1.3403 H   0  0  0  0  0  0  0  0  0  0  0  0
   20.4619    3.4347   -2.4032 H   0  0  0  0  0  0  0  0  0  0  0  0
   20.4496    2.4410   -3.8697 H   0  0  0  0  0  0  0  0  0  0  0  0
   21.2240    1.2756   -1.2606 H   0  0  0  0  0  0  0  0  0  0  0  0
   23.0706    0.0070   -1.8294 H   0  0  0  0  0  0  0  0  0  0  0  0
   27.7016    2.8987   -1.8203 H   0  0  0  0  0  0  0  0  0  0  0  0
   28.7929    0.7228   -2.0908 H   0  0  0  0  0  0  0  0  0  0  0  0
   24.9575   -1.2069   -2.1155 H   0  0  0  0  0  0  0  0  0  0  0  0
   28.6792   -1.6604   -2.3502 H   0  0  0  0  0  0  0  0  0  0  0  0
   27.2037   -2.2718   -3.1098 H   0  0  0  0  0  0  0  0  0  0  0  0
   27.3966   -2.3424   -1.3372 H   0  0  0  0  0  0  0  0  0  0  0  0
   24.1732    3.4400   -1.0033 H   0  0  0  0  0  0  0  0  0  0  0  0
   24.9607    4.0141   -2.5076 H   0  0  0  0  0  0  0  0  0  0  0  0
   25.7979    4.0806   -0.9475 H   0  0  0  0  0  0  0  0  0  0  0  0
  1  2  1  0  0  0  0
  1 31  1  0  0  0  0
  1 32  1  0  0  0  0
  1 33  1  0  0  0  0
  2  3  1  0  0  0  0
  2 34  1  0  0  0  0
  2 35  1  0  0  0  0
  3  4  1  0  0  0  0
  3 36  1  0  0  0  0
  3 37  1  0  0  0  0
  4  5  1  0  0  0  0
  4 38  1  0  0  0  0
  4 39  1  0  0  0  0
  5  6  1  0  0  0  0
  5 40  1  0  0  0  0
  5 41  1  0  0  0  0
  6  7  1  0  0  0  0
  6 42  1  0  0  0  0
  6 43  1  0  0  0  0
  7  8  1  0  0  0  0
  7 44  1  0  0  0  0
  7 45  1  0  0  0  0
  8  9  1  0  0  0  0
  8 46  1  0  0  0  0
  8 47  1  0  0  0  0
  9 10  2  0  0  0  0
  9 48  1  0  0  0  0
 10 11  1  0  0  0  0
 10 49  1  0  0  0  0
 11 12  1  0  0  0  0
 11 50  1  0  0  0  0
 11 51  1  0  0  0  0
 12 13  1  0  0  0  0
 12 52  1  0  0  0  0
 12 53  1  0  0  0  0
 13 14  1  0  0  0  0
 13 54  1  0  0  0  0
 13 55  1  0  0  0  0
 14 15  1  0  0  0  0
 14 56  1  0  0  0  0
 14 57  1  0  0  0  0
 15 16  1  0  0  0  0
 15 58  1  0  0  0  0
 15 59  1  0  0  0  0
 16 17  1  0  0  0  0
 16 60  1  0  0  0  0
 16 61  1  0  0  0  0
 17 18  1  0  0  0  0
 17 62  1  0  0  0  0
 17 63  1  0  0  0  0
 18 19  1  0  0  0  0
 18 64  1  0  0  0  0
 18 65  1  0  0  0  0
 19 20  1  0  0  0  0
 19 66  1  0  0  0  0
 20 21  2  0  0  0  0
 20 22  1  0  0  0  0
 22 23  1  0  0  0  0
 22 67  1  0  0  0  0
 23 24  2  0  0  0  0
 23 28  1  0  0  0  0
 24 25  1  0  0  0  0
 24 30  1  0  0  0  0
 25 26  2  0  0  0  0
 25 68  1  0  0  0  0
 26 27  1  0  0  0  0
 26 69  1  0  0  0  0
 27 28  2  0  0  0  0
 27 29  1  0  0  0  0
 28 70  1  0  0  0  0
 29 71  1  0  0  0  0
 29 72  1  0  0  0  0
 29 73  1  0  0  0  0
 30 74  1  0  0  0  0
 30 75  1  0  0  0  0
 30 76  1  0  0  0  0
M  END
