
 OpenBabel10072620103D

 43 45  0  0  0  0  0  0  0  0999 V2000
    2.2655   -0.3026    1.0395 C   0  0  0  0  0  0  0  0  0  0  0  0
    0.8552   -0.3700    0.6122 C   0  0  0  0  0  0  0  0  0  0  0  0
    0.0195   -1.3636    0.1359 C   0  0  0  0  0  0  0  0  0  0  0  0
   -1.2478   -0.7052    0.0248 C   0  0  0  0  0  0  0  0  0  0  0  0
   -1.1357    0.5996    0.3078 N   0  0  0  0  0  0  0  0  0  0  0  0
    0.1710    0.7991    0.6888 O   0  0  0  0  0  0  0  0  0  0  0  0
   -2.5338   -1.2873   -0.3445 C   0  0  0  0  0  0  0  0  0  0  0  0
   -3.0364   -2.4075    0.3323 C   0  0  0  0  0  0  0  0  0  0  0  0
   -4.2664   -2.9589   -0.0344 C   0  0  0  0  0  0  0  0  0  0  0  0
   -4.9999   -2.3938   -1.0764 C   0  0  0  0  0  0  0  0  0  0  0  0
   -4.5148   -1.2711   -1.7439 C   0  0  0  0  0  0  0  0  0  0  0  0
   -3.2866   -0.7175   -1.3779 C   0  0  0  0  0  0  0  0  0  0  0  0
    0.2763   -2.7961   -0.1633 C   0  0  0  0  0  0  0  0  0  0  0  0
    1.6893   -3.0608   -0.3009 N   0  0  0  0  0  0  0  0  0  0  0  0
    2.1122   -4.3758   -0.3368 C   0  0  0  0  0  0  0  0  0  0  0  0
    1.3367   -5.3198   -0.2863 O   0  0  0  0  0  0  0  0  0  0  0  0
    3.4871   -4.4332   -0.3788 N   0  0  0  0  0  0  0  0  0  0  0  0
    4.2932   -5.5850   -0.4383 C   0  0  0  0  0  0  0  0  0  0  0  0
    3.8074   -6.8554   -0.7509 C   0  0  0  0  0  0  0  0  0  0  0  0
    4.6737   -7.9526   -0.8036 C   0  0  0  0  0  0  0  0  0  0  0  0
    6.0441   -7.7961   -0.5560 C   0  0  0  0  0  0  0  0  0  0  0  0
    6.5281   -6.5222   -0.2282 C   0  0  0  0  0  0  0  0  0  0  0  0
    5.6604   -5.4272   -0.1791 C   0  0  0  0  0  0  0  0  0  0  0  0
    6.9809   -8.9754   -0.6190 C   0  0  0  0  0  0  0  0  0  0  0  0
    6.4715  -10.0357   -1.3060 F   0  0  0  0  0  0  0  0  0  0  0  0
    8.1621   -8.6731   -1.2271 F   0  0  0  0  0  0  0  0  0  0  0  0
    7.3069   -9.4461    0.6155 F   0  0  0  0  0  0  0  0  0  0  0  0
    2.5233   -1.1630    1.6624 H   0  0  0  0  0  0  0  0  0  0  0  0
    2.4621    0.5983    1.6300 H   0  0  0  0  0  0  0  0  0  0  0  0
    2.9321   -0.2876    0.1728 H   0  0  0  0  0  0  0  0  0  0  0  0
   -2.4904   -2.8471    1.1643 H   0  0  0  0  0  0  0  0  0  0  0  0
   -4.6543   -3.8253    0.4957 H   0  0  0  0  0  0  0  0  0  0  0  0
   -5.9573   -2.8222   -1.3619 H   0  0  0  0  0  0  0  0  0  0  0  0
   -5.0940   -0.8243   -2.5475 H   0  0  0  0  0  0  0  0  0  0  0  0
   -2.9196    0.1626   -1.9000 H   0  0  0  0  0  0  0  0  0  0  0  0
   -0.2041   -3.0871   -1.1054 H   0  0  0  0  0  0  0  0  0  0  0  0
   -0.1295   -3.4245    0.6373 H   0  0  0  0  0  0  0  0  0  0  0  0
    2.1928   -2.4554   -0.9323 H   0  0  0  0  0  0  0  0  0  0  0  0
    3.9531   -3.5671   -0.1532 H   0  0  0  0  0  0  0  0  0  0  0  0
    2.7568   -7.0253   -0.9694 H   0  0  0  0  0  0  0  0  0  0  0  0
    4.2689   -8.9345   -1.0482 H   0  0  0  0  0  0  0  0  0  0  0  0
    7.5862   -6.3771   -0.0114 H   0  0  0  0  0  0  0  0  0  0  0  0
    6.0688   -4.4533    0.0796 H   0  0  0  0  0  0  0  0  0  0  0  0
  1  2  1  0  0  0  0
  1 28  1  0  0  0  0
  1 29  1  0  0  0  0
  1 30  1  0  0  0  0
  2  3  2  0  0  0  0
  2  6  1  0  0  0  0
  3  4  1  0  0  0  0
  3 13  1  0  0  0  0
  4  5  2  0  0  0  0
  4  7  1  0  0  0  0
  5  6  1  0  0  0  0
  7  8  2  0  0  0  0
  7 12  1  0  0  0  0
  8  9  1  0  0  0  0
  8 31  1  0  0  0  0
  9 10  2  0  0  0  0
  9 32  1  0  0  0  0
 10 11  1  0  0  0  0
 10 33  1  0  0  0  0
 11 12  2  0  0  0  0
 11 34  1  0  0  0  0
 12 35  1  0  0  0  0
 13 14  1  0  0  0  0
 13 36  1  0  0  0  0
 13 37  1  0  0  0  0
 14 15  1  0  0  0  0
 14 38  1  0  0  0  0
 15 16  2  0  0  0  0
 15 17  1  0  0  0  0
 17 18  1  0  0  0  0
 17 39  1  0  0  0  0
 18 19  2  0  0  0  0
 18 23  1  0  0  0  0
 19 20  1  0  0  0  0
 19 40  1  0  0  0  0
 20 21  2  0  0  0  0
 20 41  1  0  0  0  0
 21 22  1  0  0  0  0
 21 24  1  0  0  0  0
 22 23  2  0  0  0  0
 22 42  1  0  0  0  0
 23 43  1  0  0  0  0
 24 25  1  0  0  0  0
 24 26  1  0  0  0  0
 24 27  1  0  0  0  0
M  END
