
 OpenBabel10072619483D

 60 63  0  0  0  0  0  0  0  0999 V2000
    4.2541   -0.8852    1.7303 C   0  0  0  0  0  0  0  0  0  0  0  0
    4.1596   -0.4202    0.3153 C   0  0  0  0  0  0  0  0  0  0  0  0
    4.5953    0.7903   -0.1878 C   0  0  0  0  0  0  0  0  0  0  0  0
    4.4247    0.7637   -1.5811 C   0  0  0  0  0  0  0  0  0  0  0  0
    3.8702   -0.4564   -1.9192 C   0  0  0  0  0  0  0  0  0  0  0  0
    3.6916   -1.1931   -0.7486 N   0  0  0  0  0  0  0  0  0  0  0  0
    3.1226   -2.4984   -0.6508 C   0  0  0  0  0  0  0  0  0  0  0  0
    3.5050   -3.5143   -1.5391 C   0  0  0  0  0  0  0  0  0  0  0  0
    2.9690   -4.8035   -1.4122 C   0  0  0  0  0  0  0  0  0  0  0  0
    2.0368   -5.0729   -0.4044 C   0  0  0  0  0  0  0  0  0  0  0  0
    1.6447   -4.0539    0.4719 C   0  0  0  0  0  0  0  0  0  0  0  0
    2.1837   -2.7720    0.3497 C   0  0  0  0  0  0  0  0  0  0  0  0
    1.4634   -6.4261   -0.1896 C   0  0  0  0  0  0  0  0  0  0  0  0
    1.2400   -6.7942    0.9600 O   0  0  0  0  0  0  0  0  0  0  0  0
    1.1742   -7.1533   -1.3376 N   0  0  0  0  0  0  0  0  0  0  0  0
    0.5004   -8.3256   -1.1928 N   0  0  0  0  0  0  0  0  0  0  0  0
    0.1062   -8.9349   -2.2633 C   0  0  0  0  0  0  0  0  0  0  0  0
   -0.6928  -10.1747   -2.1486 C   0  0  0  0  0  0  0  0  0  0  0  0
   -1.2606  -10.7849   -3.2700 C   0  0  0  0  0  0  0  0  0  0  0  0
   -2.0913  -11.9045   -3.1225 C   0  0  0  0  0  0  0  0  0  0  0  0
   -2.3141  -12.4446   -1.8561 C   0  0  0  0  0  0  0  0  0  0  0  0
   -1.7230  -11.8551   -0.7408 C   0  0  0  0  0  0  0  0  0  0  0  0
   -0.9228  -10.7219   -0.8772 C   0  0  0  0  0  0  0  0  0  0  0  0
   -2.0363  -12.5820    0.9752 Br  0  0  0  0  0  0  0  0  0  0  0  0
   -1.1043  -10.2303   -4.5463 O   0  0  0  0  0  0  0  0  0  0  0  0
   -0.4768  -11.0883   -5.4338 C   0  0  0  0  0  0  0  0  0  0  0  0
    0.1497  -12.1031   -5.1691 O   0  0  0  0  0  0  0  0  0  0  0  0
   -0.7545  -10.5982   -6.7998 C   0  0  0  0  0  0  0  0  0  0  0  0
   -0.5071  -11.4033   -7.8437 C   0  0  0  0  0  0  0  0  0  0  0  0
   -0.8172  -11.0508   -9.2335 C   0  0  0  0  0  0  0  0  0  0  0  0
   -0.5600   -9.7758   -9.7522 C   0  0  0  0  0  0  0  0  0  0  0  0
   -0.8439   -9.4843  -11.0883 C   0  0  0  0  0  0  0  0  0  0  0  0
   -1.3835  -10.4655  -11.9178 C   0  0  0  0  0  0  0  0  0  0  0  0
   -1.6331  -11.7408  -11.4156 C   0  0  0  0  0  0  0  0  0  0  0  0
   -1.3462  -12.0337  -10.0804 C   0  0  0  0  0  0  0  0  0  0  0  0
    3.4228   -0.8889   -3.2730 C   0  0  0  0  0  0  0  0  0  0  0  0
    5.0165   -0.3109    2.2685 H   0  0  0  0  0  0  0  0  0  0  0  0
    4.5445   -1.9381    1.7946 H   0  0  0  0  0  0  0  0  0  0  0  0
    3.3056   -0.7365    2.2549 H   0  0  0  0  0  0  0  0  0  0  0  0
    5.0174    1.5979    0.3973 H   0  0  0  0  0  0  0  0  0  0  0  0
    4.6624    1.5615   -2.2732 H   0  0  0  0  0  0  0  0  0  0  0  0
    4.2689   -3.3401   -2.2922 H   0  0  0  0  0  0  0  0  0  0  0  0
    3.3284   -5.5936   -2.0664 H   0  0  0  0  0  0  0  0  0  0  0  0
    0.9150   -4.2606    1.2539 H   0  0  0  0  0  0  0  0  0  0  0  0
    1.8373   -1.9976    1.0281 H   0  0  0  0  0  0  0  0  0  0  0  0
    1.2654   -6.7420   -2.2577 H   0  0  0  0  0  0  0  0  0  0  0  0
    0.3258   -8.5479   -3.2732 H   0  0  0  0  0  0  0  0  0  0  0  0
   -2.5679  -12.3587   -3.9875 H   0  0  0  0  0  0  0  0  0  0  0  0
   -2.9515  -13.3185   -1.7483 H   0  0  0  0  0  0  0  0  0  0  0  0
   -0.4895  -10.2543    0.0060 H   0  0  0  0  0  0  0  0  0  0  0  0
   -1.2101   -9.6215   -6.9034 H   0  0  0  0  0  0  0  0  0  0  0  0
   -0.0895  -12.3980   -7.6902 H   0  0  0  0  0  0  0  0  0  0  0  0
   -0.1251   -8.9997   -9.1281 H   0  0  0  0  0  0  0  0  0  0  0  0
   -0.6395   -8.4917  -11.4814 H   0  0  0  0  0  0  0  0  0  0  0  0
   -1.6064  -10.2363  -12.9566 H   0  0  0  0  0  0  0  0  0  0  0  0
   -2.0498  -12.5081  -12.0635 H   0  0  0  0  0  0  0  0  0  0  0  0
   -1.5511  -13.0350   -9.7070 H   0  0  0  0  0  0  0  0  0  0  0  0
    3.2925   -0.0204   -3.9283 H   0  0  0  0  0  0  0  0  0  0  0  0
    2.4604   -1.4075   -3.2347 H   0  0  0  0  0  0  0  0  0  0  0  0
    4.1689   -1.5393   -3.7381 H   0  0  0  0  0  0  0  0  0  0  0  0
  1  2  1  0  0  0  0
  1 37  1  0  0  0  0
  1 38  1  0  0  0  0
  1 39  1  0  0  0  0
  2  3  2  0  0  0  0
  2  6  1  0  0  0  0
  3  4  1  0  0  0  0
  3 40  1  0  0  0  0
  4  5  2  0  0  0  0
  4 41  1  0  0  0  0
  5  6  1  0  0  0  0
  5 36  1  0  0  0  0
  6  7  1  0  0  0  0
  7  8  2  0  0  0  0
  7 12  1  0  0  0  0
  8  9  1  0  0  0  0
  8 42  1  0  0  0  0
  9 10  2  0  0  0  0
  9 43  1  0  0  0  0
 10 11  1  0  0  0  0
 10 13  1  0  0  0  0
 11 12  2  0  0  0  0
 11 44  1  0  0  0  0
 12 45  1  0  0  0  0
 13 14  2  0  0  0  0
 13 15  1  0  0  0  0
 15 16  1  0  0  0  0
 15 46  1  0  0  0  0
 16 17  2  0  0  0  0
 17 18  1  0  0  0  0
 17 47  1  0  0  0  0
 18 19  2  0  0  0  0
 18 23  1  0  0  0  0
 19 20  1  0  0  0  0
 19 25  1  0  0  0  0
 20 21  2  0  0  0  0
 20 48  1  0  0  0  0
 21 22  1  0  0  0  0
 21 49  1  0  0  0  0
 22 23  2  0  0  0  0
 22 24  1  0  0  0  0
 23 50  1  0  0  0  0
 25 26  1  0  0  0  0
 26 27  2  0  0  0  0
 26 28  1  0  0  0  0
 28 29  2  0  0  0  0
 28 51  1  0  0  0  0
 29 30  1  0  0  0  0
 29 52  1  0  0  0  0
 30 31  2  0  0  0  0
 30 35  1  0  0  0  0
 31 32  1  0  0  0  0
 31 53  1  0  0  0  0
 32 33  2  0  0  0  0
 32 54  1  0  0  0  0
 33 34  1  0  0  0  0
 33 55  1  0  0  0  0
 34 35  2  0  0  0  0
 34 56  1  0  0  0  0
 35 57  1  0  0  0  0
 36 58  1  0  0  0  0
 36 59  1  0  0  0  0
 36 60  1  0  0  0  0
M  END
