
 OpenBabel10072620213D

 35 36  0  0  0  0  0  0  0  0999 V2000
   -0.2124    1.0235    0.2456 C   0  0  0  0  0  0  0  0  0  0  0  0
    0.8570    0.5281   -0.4538 C   0  0  0  0  0  0  0  0  0  0  0  0
    0.8302   -0.8261   -0.4630 O   0  0  0  0  0  0  0  0  0  0  0  0
   -0.2614   -1.2463    0.2686 C   0  0  0  0  0  0  0  0  0  0  0  0
   -0.9321   -0.1064    0.6998 C   0  0  0  0  0  0  0  0  0  0  0  0
   -0.6347   -2.6063    0.4482 C   0  0  0  0  0  0  0  0  0  0  0  0
    0.2116   -3.6516    0.4440 C   0  0  0  0  0  0  0  0  0  0  0  0
   -0.4496   -5.0071    0.3690 C   0  0  0  0  0  0  0  0  0  0  0  0
   -1.5661   -5.1860   -0.1009 O   0  0  0  0  0  0  0  0  0  0  0  0
    0.3224   -6.0187    0.9026 N   0  0  0  0  0  0  0  0  0  0  0  0
   -0.2191   -7.3581    1.0819 C   0  0  0  0  0  0  0  0  0  0  0  0
   -0.3306   -8.1294   -0.2336 C   0  0  0  0  0  0  0  0  0  0  0  0
    0.9585   -8.2545   -0.8338 O   0  0  0  0  0  0  0  0  0  0  0  0
    1.5919   -3.6381    0.4515 N   0  0  0  0  0  0  0  0  0  0  0  0
    2.4247   -2.7773    1.1444 C   0  0  0  0  0  0  0  0  0  0  0  0
    2.0465   -1.9711    1.9881 O   0  0  0  0  0  0  0  0  0  0  0  0
    3.8283   -3.0105    0.8602 C   0  0  0  0  0  0  0  0  0  0  0  0
    4.9683   -2.3732    1.3112 C   0  0  0  0  0  0  0  0  0  0  0  0
    6.0682   -3.0326    0.7125 C   0  0  0  0  0  0  0  0  0  0  0  0
    5.5377   -4.0371   -0.0615 C   0  0  0  0  0  0  0  0  0  0  0  0
    4.1821   -4.0386    0.0210 O   0  0  0  0  0  0  0  0  0  0  0  0
   -0.4454    2.0656    0.4087 H   0  0  0  0  0  0  0  0  0  0  0  0
    1.6835    0.9828   -0.9811 H   0  0  0  0  0  0  0  0  0  0  0  0
   -1.8395   -0.1023    1.2881 H   0  0  0  0  0  0  0  0  0  0  0  0
   -1.7058   -2.7909    0.4974 H   0  0  0  0  0  0  0  0  0  0  0  0
    1.1071   -5.7501    1.4841 H   0  0  0  0  0  0  0  0  0  0  0  0
   -1.2001   -7.2807    1.5629 H   0  0  0  0  0  0  0  0  0  0  0  0
    0.4672   -7.8768    1.7594 H   0  0  0  0  0  0  0  0  0  0  0  0
   -0.9974   -7.6363   -0.9475 H   0  0  0  0  0  0  0  0  0  0  0  0
   -0.7136   -9.1371   -0.0464 H   0  0  0  0  0  0  0  0  0  0  0  0
    1.2421   -7.3456   -1.0368 H   0  0  0  0  0  0  0  0  0  0  0  0
    2.0610   -4.4349    0.0332 H   0  0  0  0  0  0  0  0  0  0  0  0
    4.9872   -1.5319    1.9917 H   0  0  0  0  0  0  0  0  0  0  0  0
    7.1183   -2.8043    0.8313 H   0  0  0  0  0  0  0  0  0  0  0  0
    5.9699   -4.7965   -0.6992 H   0  0  0  0  0  0  0  0  0  0  0  0
  1  2  2  0  0  0  0
  1  5  1  0  0  0  0
  1 22  1  0  0  0  0
  2  3  1  0  0  0  0
  2 23  1  0  0  0  0
  3  4  1  0  0  0  0
  4  5  2  0  0  0  0
  4  6  1  0  0  0  0
  5 24  1  0  0  0  0
  6  7  2  0  0  0  0
  6 25  1  0  0  0  0
  7  8  1  0  0  0  0
  7 14  1  0  0  0  0
  8  9  2  0  0  0  0
  8 10  1  0  0  0  0
 10 11  1  0  0  0  0
 10 26  1  0  0  0  0
 11 12  1  0  0  0  0
 11 27  1  0  0  0  0
 11 28  1  0  0  0  0
 12 13  1  0  0  0  0
 12 29  1  0  0  0  0
 12 30  1  0  0  0  0
 13 31  1  0  0  0  0
 14 15  1  0  0  0  0
 14 32  1  0  0  0  0
 15 16  2  0  0  0  0
 15 17  1  0  0  0  0
 17 18  2  0  0  0  0
 17 21  1  0  0  0  0
 18 19  1  0  0  0  0
 18 33  1  0  0  0  0
 19 20  2  0  0  0  0
 19 34  1  0  0  0  0
 20 21  1  0  0  0  0
 20 35  1  0  0  0  0
M  END
