
 OpenBabel10072616413D

 92 94  0  0  1  0  0  0  0  0999 V2000
    4.3575   -3.8622    2.4897 C   0  0  0  0  0  0  0  0  0  0  0  0
    5.6954   -3.4093    2.6802 O   0  0  0  0  0  0  0  0  0  0  0  0
    5.8310   -2.4460    3.6285 C   0  0  0  0  0  0  0  0  0  0  0  0
    4.9275   -1.9961    4.3140 O   0  0  0  0  0  0  0  0  0  0  0  0
    7.1264   -2.0369    3.6446 N   0  0  0  0  0  0  0  0  0  0  0  0
    7.5772   -0.8613    4.3614 C   0  0  0  0  0  0  0  0  0  0  0  0
    7.2376    0.4078    3.5776 C   0  0  0  0  0  0  0  0  0  0  0  0
    7.7325    1.7102    4.2061 C   0  0  0  0  0  0  0  0  0  0  0  0
    9.2309    1.7789    4.5062 C   0  0  0  0  0  0  0  0  0  0  0  0
   10.1489    1.3972    3.3282 C   0  0  0  0  0  0  0  0  0  0  0  0
   11.5717    1.5108    3.7133 N   0  0  0  0  0  0  0  0  0  0  0  0
   12.1722    2.8511    3.4586 C   0  0  1  0  0  0  0  0  0  0  0  0
   12.8676    3.4343    4.6991 C   0  0  1  0  0  0  0  0  0  0  0  0
   14.2647    2.8667    4.9794 C   0  0  2  0  0  0  0  0  0  0  0  0
   14.3793    1.3477    4.7455 C   0  0  2  0  0  0  0  0  0  0  0  0
   13.1957    0.6472    5.2677 N   0  0  0  0  0  0  0  0  0  0  0  0
   12.0190    0.4970    4.5564 C   0  0  0  0  0  0  0  0  0  0  0  0
   11.3035   -0.4927    4.7777 O   0  0  0  0  0  0  0  0  0  0  0  0
   13.2086    0.1078    6.6370 C   0  0  0  0  0  0  0  0  0  0  0  0
   13.4172   -1.4093    6.7420 C   0  0  0  0  0  0  0  0  0  0  0  0
   13.2999   -1.9355    8.1819 C   0  0  0  0  0  0  0  0  0  0  0  0
   12.0431   -1.5178    8.9575 C   0  0  0  0  0  0  0  0  0  0  0  0
   10.7158   -1.8411    8.2666 C   0  0  0  0  0  0  0  0  0  0  0  0
    9.5881   -1.2916    8.9893 N   0  0  0  0  0  0  0  0  0  0  0  0
    9.2751    0.0381    8.9617 C   0  0  0  0  0  0  0  0  0  0  0  0
    9.8920    0.8954    8.3554 O   0  0  0  0  0  0  0  0  0  0  0  0
    8.1970    0.2699    9.7562 O   0  0  0  0  0  0  0  0  0  0  0  0
    7.8690    1.6568    9.8854 C   0  0  0  0  0  0  0  0  0  0  0  0
   15.7303    0.7526    5.2151 C   0  0  0  0  0  0  0  0  0  0  0  0
   16.9327    1.3034    4.4822 C   0  0  0  0  0  0  0  0  0  0  0  0
   17.6833    2.3421    5.0517 C   0  0  0  0  0  0  0  0  0  0  0  0
   18.7960    2.8585    4.3885 C   0  0  0  0  0  0  0  0  0  0  0  0
   19.1768    2.3358    3.1550 C   0  0  0  0  0  0  0  0  0  0  0  0
   18.4266    1.3159    2.5695 C   0  0  0  0  0  0  0  0  0  0  0  0
   17.3069    0.8010    3.2283 C   0  0  0  0  0  0  0  0  0  0  0  0
   14.5942    3.2195    6.3373 O   0  0  0  0  0  0  0  0  0  0  0  0
   12.9732    4.8654    4.5842 O   0  0  0  0  0  0  0  0  0  0  0  0
   13.0149    2.9511    2.1582 C   0  0  0  0  0  0  0  0  0  0  0  0
   12.2514    2.7189    0.8702 C   0  0  0  0  0  0  0  0  0  0  0  0
   11.7367    3.8055    0.1498 C   0  0  0  0  0  0  0  0  0  0  0  0
   11.0287    3.5960   -1.0370 C   0  0  0  0  0  0  0  0  0  0  0  0
   10.8359    2.2997   -1.5139 C   0  0  0  0  0  0  0  0  0  0  0  0
   11.3445    1.2136   -0.8049 C   0  0  0  0  0  0  0  0  0  0  0  0
   12.0556    1.4187    0.3792 C   0  0  0  0  0  0  0  0  0  0  0  0
    4.3253   -4.4502    1.5690 H   0  0  0  0  0  0  0  0  0  0  0  0
    3.6641   -3.0243    2.3753 H   0  0  0  0  0  0  0  0  0  0  0  0
    4.0532   -4.5033    3.3209 H   0  0  0  0  0  0  0  0  0  0  0  0
    7.7271   -2.4483    2.9417 H   0  0  0  0  0  0  0  0  0  0  0  0
    8.6538   -0.9758    4.4975 H   0  0  0  0  0  0  0  0  0  0  0  0
    7.1106   -0.8380    5.3521 H   0  0  0  0  0  0  0  0  0  0  0  0
    6.1480    0.4779    3.4686 H   0  0  0  0  0  0  0  0  0  0  0  0
    7.6253    0.3260    2.5557 H   0  0  0  0  0  0  0  0  0  0  0  0
    7.1834    1.8877    5.1413 H   0  0  0  0  0  0  0  0  0  0  0  0
    7.4671    2.5366    3.5313 H   0  0  0  0  0  0  0  0  0  0  0  0
    9.4488    1.1459    5.3760 H   0  0  0  0  0  0  0  0  0  0  0  0
    9.4637    2.8038    4.8251 H   0  0  0  0  0  0  0  0  0  0  0  0
    9.9437    2.0390    2.4645 H   0  0  0  0  0  0  0  0  0  0  0  0
    9.9667    0.3671    2.9996 H   0  0  0  0  0  0  0  0  0  0  0  0
   11.3189    3.5266    3.2939 H   0  0  0  0  0  0  0  0  0  0  0  0
   12.2196    3.2741    5.5702 H   0  0  0  0  0  0  0  0  0  0  0  0
   15.0000    3.3943    4.3623 H   0  0  0  0  0  0  0  0  0  0  0  0
   14.3459    1.1578    3.6744 H   0  0  0  0  0  0  0  0  0  0  0  0
   12.2376    0.3739    7.0677 H   0  0  0  0  0  0  0  0  0  0  0  0
   13.9580    0.6337    7.2381 H   0  0  0  0  0  0  0  0  0  0  0  0
   14.4116   -1.6722    6.3615 H   0  0  0  0  0  0  0  0  0  0  0  0
   12.7068   -1.9506    6.1078 H   0  0  0  0  0  0  0  0  0  0  0  0
   14.1750   -1.5899    8.7495 H   0  0  0  0  0  0  0  0  0  0  0  0
   13.3580   -3.0314    8.1560 H   0  0  0  0  0  0  0  0  0  0  0  0
   12.0996   -0.4458    9.1755 H   0  0  0  0  0  0  0  0  0  0  0  0
   12.0607   -2.0100    9.9379 H   0  0  0  0  0  0  0  0  0  0  0  0
   10.5733   -2.9233    8.2010 H   0  0  0  0  0  0  0  0  0  0  0  0
   10.6861   -1.4339    7.2528 H   0  0  0  0  0  0  0  0  0  0  0  0
    9.0014   -1.8848    9.5655 H   0  0  0  0  0  0  0  0  0  0  0  0
    7.0144    1.7510   10.5629 H   0  0  0  0  0  0  0  0  0  0  0  0
    7.5922    2.0868    8.9165 H   0  0  0  0  0  0  0  0  0  0  0  0
    8.7110    2.2027   10.3238 H   0  0  0  0  0  0  0  0  0  0  0  0
   15.7192   -0.3347    5.0652 H   0  0  0  0  0  0  0  0  0  0  0  0
   15.8771    0.8957    6.2916 H   0  0  0  0  0  0  0  0  0  0  0  0
   17.3998    2.7570    6.0178 H   0  0  0  0  0  0  0  0  0  0  0  0
   19.3663    3.6658    4.8403 H   0  0  0  0  0  0  0  0  0  0  0  0
   20.0549    2.7284    2.6480 H   0  0  0  0  0  0  0  0  0  0  0  0
   18.7198    0.9183    1.6016 H   0  0  0  0  0  0  0  0  0  0  0  0
   16.7407   -0.0013    2.7589 H   0  0  0  0  0  0  0  0  0  0  0  0
   13.9159    2.8242    6.9128 H   0  0  0  0  0  0  0  0  0  0  0  0
   13.5110    5.1575    5.3463 H   0  0  0  0  0  0  0  0  0  0  0  0
   13.4656    3.9511    2.1066 H   0  0  0  0  0  0  0  0  0  0  0  0
   13.8596    2.2598    2.1565 H   0  0  0  0  0  0  0  0  0  0  0  0
   11.8884    4.8219    0.5068 H   0  0  0  0  0  0  0  0  0  0  0  0
   10.6280    4.4457   -1.5814 H   0  0  0  0  0  0  0  0  0  0  0  0
   10.2857    2.1421   -2.4389 H   0  0  0  0  0  0  0  0  0  0  0  0
   11.1811    0.2027   -1.1724 H   0  0  0  0  0  0  0  0  0  0  0  0
   12.4460    0.5581    0.9209 H   0  0  0  0  0  0  0  0  0  0  0  0
  1  2  1  0  0  0  0
  1 45  1  0  0  0  0
  1 46  1  0  0  0  0
  1 47  1  0  0  0  0
  2  3  1  0  0  0  0
  3  4  2  0  0  0  0
  3  5  1  0  0  0  0
  5  6  1  0  0  0  0
  5 48  1  0  0  0  0
  6  7  1  0  0  0  0
  6 49  1  0  0  0  0
  6 50  1  0  0  0  0
  7  8  1  0  0  0  0
  7 51  1  0  0  0  0
  7 52  1  0  0  0  0
  8  9  1  0  0  0  0
  8 53  1  0  0  0  0
  8 54  1  0  0  0  0
  9 10  1  0  0  0  0
  9 55  1  0  0  0  0
  9 56  1  0  0  0  0
 10 11  1  0  0  0  0
 10 57  1  0  0  0  0
 10 58  1  0  0  0  0
 11 12  1  0  0  0  0
 11 17  1  0  0  0  0
 12 13  1  0  0  0  0
 12 38  1  0  0  0  0
 12 59  1  6  0  0  0
 13 14  1  0  0  0  0
 13 37  1  0  0  0  0
 13 60  1  1  0  0  0
 14 15  1  0  0  0  0
 14 36  1  0  0  0  0
 14 61  1  6  0  0  0
 15 16  1  0  0  0  0
 15 29  1  0  0  0  0
 15 62  1  6  0  0  0
 16 17  1  0  0  0  0
 16 19  1  0  0  0  0
 17 18  2  0  0  0  0
 19 20  1  0  0  0  0
 19 63  1  0  0  0  0
 19 64  1  0  0  0  0
 20 21  1  0  0  0  0
 20 65  1  0  0  0  0
 20 66  1  0  0  0  0
 21 22  1  0  0  0  0
 21 67  1  0  0  0  0
 21 68  1  0  0  0  0
 22 23  1  0  0  0  0
 22 69  1  0  0  0  0
 22 70  1  0  0  0  0
 23 24  1  0  0  0  0
 23 71  1  0  0  0  0
 23 72  1  0  0  0  0
 24 25  1  0  0  0  0
 24 73  1  0  0  0  0
 25 26  2  0  0  0  0
 25 27  1  0  0  0  0
 27 28  1  0  0  0  0
 28 74  1  0  0  0  0
 28 75  1  0  0  0  0
 28 76  1  0  0  0  0
 29 30  1  0  0  0  0
 29 77  1  0  0  0  0
 29 78  1  0  0  0  0
 30 31  2  0  0  0  0
 30 35  1  0  0  0  0
 31 32  1  0  0  0  0
 31 79  1  0  0  0  0
 32 33  2  0  0  0  0
 32 80  1  0  0  0  0
 33 34  1  0  0  0  0
 33 81  1  0  0  0  0
 34 35  2  0  0  0  0
 34 82  1  0  0  0  0
 35 83  1  0  0  0  0
 36 84  1  0  0  0  0
 37 85  1  0  0  0  0
 38 39  1  0  0  0  0
 38 86  1  0  0  0  0
 38 87  1  0  0  0  0
 39 40  2  0  0  0  0
 39 44  1  0  0  0  0
 40 41  1  0  0  0  0
 40 88  1  0  0  0  0
 41 42  2  0  0  0  0
 41 89  1  0  0  0  0
 42 43  1  0  0  0  0
 42 90  1  0  0  0  0
 43 44  2  0  0  0  0
 43 91  1  0  0  0  0
 44 92  1  0  0  0  0
M  END
