
 OpenBabel10072620033D

 49 50  0  0  0  0  0  0  0  0999 V2000
    1.8173    0.4070   -0.0066 C   0  0  0  0  0  0  0  0  0  0  0  0
    3.1474   -0.2840    0.0697 C   0  0  0  0  0  0  0  0  0  0  0  0
    3.3520   -1.6265    0.0564 C   0  0  0  0  0  0  0  0  0  0  0  0
    5.0969   -1.9545   -0.0032 S   0  0  0  0  0  0  0  0  0  0  0  0
    5.5138   -0.2352    0.0512 C   0  0  0  0  0  0  0  0  0  0  0  0
    6.6939    0.2787    0.0286 N   0  0  0  0  0  0  0  0  0  0  0  0
    8.0289   -0.6117   -0.0526 S   0  0  0  0  0  0  0  0  0  0  0  0
    8.1652   -1.3973    1.1604 O   0  0  0  0  0  0  0  0  0  0  0  0
    8.1205   -1.2591   -1.3470 O   0  0  0  0  0  0  0  0  0  0  0  0
    9.3088    0.6304    0.0280 C   0  0  0  0  0  0  0  0  0  0  0  0
    9.8453    1.2401   -1.1128 C   0  0  0  0  0  0  0  0  0  0  0  0
   10.8617    2.1951   -0.9607 C   0  0  0  0  0  0  0  0  0  0  0  0
   11.3460    2.5218    0.3085 C   0  0  0  0  0  0  0  0  0  0  0  0
   10.8180    1.8964    1.4337 C   0  0  0  0  0  0  0  0  0  0  0  0
    9.8059    0.9523    1.3026 C   0  0  0  0  0  0  0  0  0  0  0  0
   11.4163    2.2962    2.9949 Cl  0  0  0  0  0  0  0  0  0  0  0  0
    9.3509    1.0226   -2.4390 N   0  0  0  0  0  0  0  0  0  0  0  0
    8.1668    2.1128   -2.9765 S   0  0  0  0  0  0  0  0  0  0  0  0
    7.5009    2.7171   -1.8433 O   0  0  0  0  0  0  0  0  0  0  0  0
    8.8068    2.9156   -3.9962 O   0  0  0  0  0  0  0  0  0  0  0  0
    7.0290    1.0025   -3.7726 C   0  0  0  0  0  0  0  0  0  0  0  0
    4.3276    0.4878    0.1126 N   0  0  0  0  0  0  0  0  0  0  0  0
    4.3593    1.9437    0.1516 C   0  0  0  0  0  0  0  0  0  0  0  0
    2.3491   -2.7949    0.0740 C   0  0  0  0  0  0  0  0  0  0  0  0
    1.8688   -3.0686   -1.3635 C   0  0  0  0  0  0  0  0  0  0  0  0
    2.9700   -4.1069    0.6235 C   0  0  0  0  0  0  0  0  0  0  0  0
    1.1246   -2.5181    0.9780 C   0  0  0  0  0  0  0  0  0  0  0  0
    1.1046   -0.1497   -0.6198 H   0  0  0  0  0  0  0  0  0  0  0  0
    1.8963    1.3858   -0.4897 H   0  0  0  0  0  0  0  0  0  0  0  0
    1.4030    0.5552    0.9953 H   0  0  0  0  0  0  0  0  0  0  0  0
   11.2694    2.7140   -1.8266 H   0  0  0  0  0  0  0  0  0  0  0  0
   12.1277    3.2696    0.4124 H   0  0  0  0  0  0  0  0  0  0  0  0
    9.3982    0.4748    2.1913 H   0  0  0  0  0  0  0  0  0  0  0  0
   10.0862    0.9691   -3.1490 H   0  0  0  0  0  0  0  0  0  0  0  0
    6.5847    0.3406   -3.0288 H   0  0  0  0  0  0  0  0  0  0  0  0
    7.5642    0.4355   -4.5364 H   0  0  0  0  0  0  0  0  0  0  0  0
    6.2512    1.6087   -4.2423 H   0  0  0  0  0  0  0  0  0  0  0  0
    5.3191    2.3290    0.5111 H   0  0  0  0  0  0  0  0  0  0  0  0
    3.5968    2.3334    0.8347 H   0  0  0  0  0  0  0  0  0  0  0  0
    4.1810    2.3517   -0.8485 H   0  0  0  0  0  0  0  0  0  0  0  0
    2.7050   -3.3404   -2.0188 H   0  0  0  0  0  0  0  0  0  0  0  0
    1.3776   -2.1926   -1.8008 H   0  0  0  0  0  0  0  0  0  0  0  0
    1.1491   -3.8954   -1.3889 H   0  0  0  0  0  0  0  0  0  0  0  0
    3.7613   -4.4941   -0.0281 H   0  0  0  0  0  0  0  0  0  0  0  0
    2.2181   -4.9024    0.6987 H   0  0  0  0  0  0  0  0  0  0  0  0
    3.3880   -3.9576    1.6261 H   0  0  0  0  0  0  0  0  0  0  0  0
    0.4485   -1.7661    0.5658 H   0  0  0  0  0  0  0  0  0  0  0  0
    1.4358   -2.1900    1.9765 H   0  0  0  0  0  0  0  0  0  0  0  0
    0.5157   -3.4221    1.1056 H   0  0  0  0  0  0  0  0  0  0  0  0
  1  2  1  0  0  0  0
  1 28  1  0  0  0  0
  1 29  1  0  0  0  0
  1 30  1  0  0  0  0
  2  3  2  0  0  0  0
  2 22  1  0  0  0  0
  3  4  1  0  0  0  0
  3 24  1  0  0  0  0
  4  5  1  0  0  0  0
  5  6  2  0  0  0  0
  5 22  1  0  0  0  0
  6  7  1  0  0  0  0
  7  8  2  0  0  0  0
  7  9  2  0  0  0  0
  7 10  1  0  0  0  0
 10 11  2  0  0  0  0
 10 15  1  0  0  0  0
 11 12  1  0  0  0  0
 11 17  1  0  0  0  0
 12 13  2  0  0  0  0
 12 31  1  0  0  0  0
 13 14  1  0  0  0  0
 13 32  1  0  0  0  0
 14 15  2  0  0  0  0
 14 16  1  0  0  0  0
 15 33  1  0  0  0  0
 17 18  1  0  0  0  0
 17 34  1  0  0  0  0
 18 19  2  0  0  0  0
 18 20  2  0  0  0  0
 18 21  1  0  0  0  0
 21 35  1  0  0  0  0
 21 36  1  0  0  0  0
 21 37  1  0  0  0  0
 22 23  1  0  0  0  0
 23 38  1  0  0  0  0
 23 39  1  0  0  0  0
 23 40  1  0  0  0  0
 24 25  1  0  0  0  0
 24 26  1  0  0  0  0
 24 27  1  0  0  0  0
 25 41  1  0  0  0  0
 25 42  1  0  0  0  0
 25 43  1  0  0  0  0
 26 44  1  0  0  0  0
 26 45  1  0  0  0  0
 26 46  1  0  0  0  0
 27 47  1  0  0  0  0
 27 48  1  0  0  0  0
 27 49  1  0  0  0  0
M  END
