
 OpenBabel10072620173D

 89 92  0  0  1  0  0  0  0  0999 V2000
    2.7636    1.1003   -5.8693 C   0  0  0  0  0  0  0  0  0  0  0  0
    4.1929    1.5910   -6.1001 C   0  0  0  0  0  0  0  0  0  0  0  0
    4.6527    1.1940   -7.5057 C   0  0  0  0  0  0  0  0  0  0  0  0
    4.3232    3.1144   -5.9196 C   0  0  0  0  0  0  0  0  0  0  0  0
    3.9183    3.6251   -4.5573 N   0  0  0  0  0  0  0  0  0  0  0  0
    4.6632    2.9558   -3.3961 C   0  0  1  0  0  0  0  0  0  0  0  0
    6.1597    3.3220   -3.3412 C   0  0  0  0  0  0  0  0  0  0  0  0
    6.9032    2.6060   -2.2017 C   0  0  0  0  0  0  0  0  0  0  0  0
    8.4272    2.6808   -2.3086 C   0  0  0  0  0  0  0  0  0  0  0  0
    9.0017    4.0673   -2.0058 C   0  0  0  0  0  0  0  0  0  0  0  0
   10.4315    4.1073   -2.2688 N   0  0  0  0  0  0  0  0  0  0  0  0
   11.3492    3.6468   -1.3570 C   0  0  0  0  0  0  0  0  0  0  0  0
   11.0180    3.3813   -0.2014 O   0  0  0  0  0  0  0  0  0  0  0  0
   12.6465    3.4606   -1.8261 N   0  0  0  0  0  0  0  0  0  0  0  0
   13.6776    3.1634   -0.8087 C   0  0  0  0  0  0  0  0  0  0  0  0
   14.7203    2.1219   -1.1655 C   0  0  0  0  0  0  0  0  0  0  0  0
   14.4392    1.0647   -2.0376 C   0  0  0  0  0  0  0  0  0  0  0  0
   15.3741    0.0682   -2.3241 C   0  0  0  0  0  0  0  0  0  0  0  0
   16.6104    0.0794   -1.6936 C   0  0  0  0  0  0  0  0  0  0  0  0
   16.8959    1.0950   -0.7764 C   0  0  0  0  0  0  0  0  0  0  0  0
   15.9681    2.1164   -0.5248 C   0  0  0  0  0  0  0  0  0  0  0  0
   17.5740   -0.8749   -1.8635 O   0  0  0  0  0  0  0  0  0  0  0  0
   17.5807   -1.4950   -3.1478 C   0  0  0  0  0  0  0  0  0  0  0  0
   13.1040    3.9163   -3.1430 C   0  0  0  0  0  0  0  0  0  0  0  0
   12.5696    3.1472   -4.3479 C   0  0  0  0  0  0  0  0  0  0  0  0
   12.8304    3.6532   -5.6351 C   0  0  0  0  0  0  0  0  0  0  0  0
   12.3511    2.9558   -6.7250 C   0  0  0  0  0  0  0  0  0  0  0  0
   11.6513    1.7817   -6.5882 C   0  0  0  0  0  0  0  0  0  0  0  0
   11.3771    1.2448   -5.3526 C   0  0  0  0  0  0  0  0  0  0  0  0
   11.8210    1.9494   -4.2312 C   0  0  0  0  0  0  0  0  0  0  0  0
   11.2786    1.2570   -7.7843 O   0  0  0  0  0  0  0  0  0  0  0  0
   11.8015    2.2500   -8.6908 C   0  0  0  0  0  0  0  0  0  0  0  0
   12.5016    3.3213   -8.0261 O   0  0  0  0  0  0  0  0  0  0  0  0
    3.9444    3.1565   -2.0426 C   0  0  0  0  0  0  0  0  0  0  0  0
    2.5465    2.9084   -2.1743 O   0  0  0  0  0  0  0  0  0  0  0  0
    3.8374    5.3475   -4.5042 S   0  0  0  0  0  0  0  0  0  0  0  0
    3.4207    5.7469   -3.1759 O   0  0  0  0  0  0  0  0  0  0  0  0
    5.0546    5.8645   -5.0901 O   0  0  0  0  0  0  0  0  0  0  0  0
    2.4754    5.7577   -5.5691 C   0  0  0  0  0  0  0  0  0  0  0  0
    1.1793    5.3956   -5.1901 C   0  0  0  0  0  0  0  0  0  0  0  0
    0.0908    5.8841   -5.9163 C   0  0  0  0  0  0  0  0  0  0  0  0
    0.2807    6.7684   -6.9811 C   0  0  0  0  0  0  0  0  0  0  0  0
    1.5856    7.0370   -7.4100 C   0  0  0  0  0  0  0  0  0  0  0  0
    2.6858    6.5527   -6.6963 C   0  0  0  0  0  0  0  0  0  0  0  0
   -0.8120    7.2145   -7.7326 N   0  0  0  0  0  0  0  0  0  0  0  0
    2.6989    0.0190   -6.0352 H   0  0  0  0  0  0  0  0  0  0  0  0
    2.0624    1.5875   -6.5557 H   0  0  0  0  0  0  0  0  0  0  0  0
    2.4287    1.2962   -4.8455 H   0  0  0  0  0  0  0  0  0  0  0  0
    4.8581    1.0721   -5.4020 H   0  0  0  0  0  0  0  0  0  0  0  0
    3.9499    1.5458   -8.2676 H   0  0  0  0  0  0  0  0  0  0  0  0
    4.7226    0.1045   -7.5876 H   0  0  0  0  0  0  0  0  0  0  0  0
    5.6402    1.6112   -7.7277 H   0  0  0  0  0  0  0  0  0  0  0  0
    3.6980    3.5976   -6.6805 H   0  0  0  0  0  0  0  0  0  0  0  0
    5.3589    3.4140   -6.1185 H   0  0  0  0  0  0  0  0  0  0  0  0
    4.5906    1.8783   -3.5678 H   0  0  0  0  0  0  0  0  0  0  0  0
    6.2770    4.4033   -3.2272 H   0  0  0  0  0  0  0  0  0  0  0  0
    6.6317    3.0547   -4.2933 H   0  0  0  0  0  0  0  0  0  0  0  0
    6.6191    1.5470   -2.2107 H   0  0  0  0  0  0  0  0  0  0  0  0
    6.5885    3.0163   -1.2360 H   0  0  0  0  0  0  0  0  0  0  0  0
    8.7367    2.3604   -3.3106 H   0  0  0  0  0  0  0  0  0  0  0  0
    8.8560    1.9525   -1.6073 H   0  0  0  0  0  0  0  0  0  0  0  0
    8.8221    4.3422   -0.9603 H   0  0  0  0  0  0  0  0  0  0  0  0
    8.5456    4.8227   -2.6515 H   0  0  0  0  0  0  0  0  0  0  0  0
   10.7009    4.2246   -3.2306 H   0  0  0  0  0  0  0  0  0  0  0  0
   13.2063    2.8261    0.1198 H   0  0  0  0  0  0  0  0  0  0  0  0
   14.1690    4.1186   -0.5889 H   0  0  0  0  0  0  0  0  0  0  0  0
   13.4628    0.9868   -2.4907 H   0  0  0  0  0  0  0  0  0  0  0  0
   15.0876   -0.7248   -3.0092 H   0  0  0  0  0  0  0  0  0  0  0  0
   17.8518    1.0928   -0.2555 H   0  0  0  0  0  0  0  0  0  0  0  0
   16.2319    2.8898    0.1956 H   0  0  0  0  0  0  0  0  0  0  0  0
   18.5392   -2.0104   -3.2539 H   0  0  0  0  0  0  0  0  0  0  0  0
   17.5035   -0.7530   -3.9521 H   0  0  0  0  0  0  0  0  0  0  0  0
   16.7843   -2.2438   -3.2315 H   0  0  0  0  0  0  0  0  0  0  0  0
   14.1978    3.8826   -3.1778 H   0  0  0  0  0  0  0  0  0  0  0  0
   12.8184    4.9701   -3.2410 H   0  0  0  0  0  0  0  0  0  0  0  0
   13.3877    4.5727   -5.7850 H   0  0  0  0  0  0  0  0  0  0  0  0
   10.8327    0.3133   -5.2468 H   0  0  0  0  0  0  0  0  0  0  0  0
   11.5619    1.5496   -3.2521 H   0  0  0  0  0  0  0  0  0  0  0  0
   10.9657    2.6772   -9.2563 H   0  0  0  0  0  0  0  0  0  0  0  0
   12.4895    1.7590   -9.3883 H   0  0  0  0  0  0  0  0  0  0  0  0
    4.1016    4.1549   -1.6243 H   0  0  0  0  0  0  0  0  0  0  0  0
    4.3226    2.4389   -1.3054 H   0  0  0  0  0  0  0  0  0  0  0  0
    2.2468    3.5192   -2.8699 H   0  0  0  0  0  0  0  0  0  0  0  0
    1.0023    4.7696   -4.3198 H   0  0  0  0  0  0  0  0  0  0  0  0
   -0.9162    5.6010   -5.6177 H   0  0  0  0  0  0  0  0  0  0  0  0
    1.7551    7.6545   -8.2885 H   0  0  0  0  0  0  0  0  0  0  0  0
    3.6909    6.8297   -7.0076 H   0  0  0  0  0  0  0  0  0  0  0  0
   -1.6825    7.2329   -7.2078 H   0  0  0  0  0  0  0  0  0  0  0  0
   -0.6431    8.1003   -8.1988 H   0  0  0  0  0  0  0  0  0  0  0  0
  1  2  1  0  0  0  0
  1 46  1  0  0  0  0
  1 47  1  0  0  0  0
  1 48  1  0  0  0  0
  2  3  1  0  0  0  0
  2  4  1  0  0  0  0
  2 49  1  0  0  0  0
  3 50  1  0  0  0  0
  3 51  1  0  0  0  0
  3 52  1  0  0  0  0
  4  5  1  0  0  0  0
  4 53  1  0  0  0  0
  4 54  1  0  0  0  0
  5  6  1  0  0  0  0
  5 36  1  0  0  0  0
  6  7  1  0  0  0  0
  6 34  1  0  0  0  0
  6 55  1  6  0  0  0
  7  8  1  0  0  0  0
  7 56  1  0  0  0  0
  7 57  1  0  0  0  0
  8  9  1  0  0  0  0
  8 58  1  0  0  0  0
  8 59  1  0  0  0  0
  9 10  1  0  0  0  0
  9 60  1  0  0  0  0
  9 61  1  0  0  0  0
 10 11  1  0  0  0  0
 10 62  1  0  0  0  0
 10 63  1  0  0  0  0
 11 12  1  0  0  0  0
 11 64  1  0  0  0  0
 12 13  2  0  0  0  0
 12 14  1  0  0  0  0
 14 15  1  0  0  0  0
 14 24  1  0  0  0  0
 15 16  1  0  0  0  0
 15 65  1  0  0  0  0
 15 66  1  0  0  0  0
 16 17  2  0  0  0  0
 16 21  1  0  0  0  0
 17 18  1  0  0  0  0
 17 67  1  0  0  0  0
 18 19  2  0  0  0  0
 18 68  1  0  0  0  0
 19 20  1  0  0  0  0
 19 22  1  0  0  0  0
 20 21  2  0  0  0  0
 20 69  1  0  0  0  0
 21 70  1  0  0  0  0
 22 23  1  0  0  0  0
 23 71  1  0  0  0  0
 23 72  1  0  0  0  0
 23 73  1  0  0  0  0
 24 25  1  0  0  0  0
 24 74  1  0  0  0  0
 24 75  1  0  0  0  0
 25 26  2  0  0  0  0
 25 30  1  0  0  0  0
 26 27  1  0  0  0  0
 26 76  1  0  0  0  0
 27 28  2  0  0  0  0
 27 33  1  0  0  0  0
 28 29  1  0  0  0  0
 28 31  1  0  0  0  0
 29 30  2  0  0  0  0
 29 77  1  0  0  0  0
 30 78  1  0  0  0  0
 31 32  1  0  0  0  0
 32 33  1  0  0  0  0
 32 79  1  0  0  0  0
 32 80  1  0  0  0  0
 34 35  1  0  0  0  0
 34 81  1  0  0  0  0
 34 82  1  0  0  0  0
 35 83  1  0  0  0  0
 36 37  2  0  0  0  0
 36 38  2  0  0  0  0
 36 39  1  0  0  0  0
 39 40  2  0  0  0  0
 39 44  1  0  0  0  0
 40 41  1  0  0  0  0
 40 84  1  0  0  0  0
 41 42  2  0  0  0  0
 41 85  1  0  0  0  0
 42 43  1  0  0  0  0
 42 45  1  0  0  0  0
 43 44  2  0  0  0  0
 43 86  1  0  0  0  0
 44 87  1  0  0  0  0
 45 88  1  0  0  0  0
 45 89  1  0  0  0  0
M  END
