
 OpenBabel10072619543D

 63 66  0  0  0  0  0  0  0  0999 V2000
   -8.1360    5.7602   -3.0214 C   0  0  0  0  0  0  0  0  0  0  0  0
   -7.2003    5.3893   -2.0659 C   0  0  0  0  0  0  0  0  0  0  0  0
   -5.9155    5.9499   -2.0740 C   0  0  0  0  0  0  0  0  0  0  0  0
   -5.5264    6.9127   -3.0410 C   0  0  0  0  0  0  0  0  0  0  0  0
   -6.5143    7.2884   -3.9980 C   0  0  0  0  0  0  0  0  0  0  0  0
   -7.7912    6.7026   -3.9842 C   0  0  0  0  0  0  0  0  0  0  0  0
   -6.2294    8.2386   -4.9836 C   0  0  0  0  0  0  0  0  0  0  0  0
   -4.9821    8.8372   -5.0382 C   0  0  0  0  0  0  0  0  0  0  0  0
   -4.0017    8.4855   -4.1150 C   0  0  0  0  0  0  0  0  0  0  0  0
   -4.2335    7.5258   -3.1168 C   0  0  0  0  0  0  0  0  0  0  0  0
   -3.1879    7.1289   -2.2263 N   0  0  0  0  0  0  0  0  0  0  0  0
   -1.9521    7.7218   -2.0839 C   0  0  0  0  0  0  0  0  0  0  0  0
   -1.5746    8.7761   -2.5901 O   0  0  0  0  0  0  0  0  0  0  0  0
   -1.0416    6.9464   -1.3798 N   0  0  0  0  0  0  0  0  0  0  0  0
    0.2719    7.4962   -1.3194 N   0  0  0  0  0  0  0  0  0  0  0  0
    1.0093    7.3548   -0.1661 C   0  0  0  0  0  0  0  0  0  0  0  0
    0.6567    6.6287    0.7636 O   0  0  0  0  0  0  0  0  0  0  0  0
    2.3191    8.1359   -0.1468 C   0  0  0  0  0  0  0  0  0  0  0  0
    2.1274    9.6537   -0.1633 C   0  0  0  0  0  0  0  0  0  0  0  0
    3.4613   10.4130   -0.1146 C   0  0  0  0  0  0  0  0  0  0  0  0
    3.2491   11.9162   -0.2246 C   0  0  0  0  0  0  0  0  0  0  0  0
    2.2691   12.4264   -0.7632 O   0  0  0  0  0  0  0  0  0  0  0  0
    4.2707   12.6678    0.3175 N   0  0  0  0  0  0  0  0  0  0  0  0
    4.0722   14.0584    0.4654 N   0  0  0  0  0  0  0  0  0  0  0  0
    5.0544   14.7631    1.1485 C   0  0  0  0  0  0  0  0  0  0  0  0
    6.0023   14.1776    1.6640 O   0  0  0  0  0  0  0  0  0  0  0  0
    4.7724   16.1164    1.2115 N   0  0  0  0  0  0  0  0  0  0  0  0
    5.5552   17.1115    1.8649 C   0  0  0  0  0  0  0  0  0  0  0  0
    6.9065   16.8726    2.1555 C   0  0  0  0  0  0  0  0  0  0  0  0
    7.6673   17.7967    2.8646 C   0  0  0  0  0  0  0  0  0  0  0  0
    7.0873   18.9800    3.2990 C   0  0  0  0  0  0  0  0  0  0  0  0
    5.7558   19.2799    2.9922 C   0  0  0  0  0  0  0  0  0  0  0  0
    5.2194   20.5002    3.4348 C   0  0  0  0  0  0  0  0  0  0  0  0
    3.9087   20.8574    3.1371 C   0  0  0  0  0  0  0  0  0  0  0  0
    3.1208   19.9977    2.3860 C   0  0  0  0  0  0  0  0  0  0  0  0
    3.6374   18.7711    1.9481 C   0  0  0  0  0  0  0  0  0  0  0  0
    4.9658   18.3632    2.2440 C   0  0  0  0  0  0  0  0  0  0  0  0
   -9.1289    5.3152   -3.0226 H   0  0  0  0  0  0  0  0  0  0  0  0
   -7.4599    4.6578   -1.3059 H   0  0  0  0  0  0  0  0  0  0  0  0
   -5.2285    5.6208   -1.3002 H   0  0  0  0  0  0  0  0  0  0  0  0
   -8.5266    6.9615   -4.7440 H   0  0  0  0  0  0  0  0  0  0  0  0
   -6.9752    8.5223   -5.7231 H   0  0  0  0  0  0  0  0  0  0  0  0
   -4.7597    9.5672   -5.8106 H   0  0  0  0  0  0  0  0  0  0  0  0
   -3.0382    8.9681   -4.2294 H   0  0  0  0  0  0  0  0  0  0  0  0
   -3.3639    6.3408   -1.6266 H   0  0  0  0  0  0  0  0  0  0  0  0
   -1.3293    6.4068   -0.5664 H   0  0  0  0  0  0  0  0  0  0  0  0
    0.3778    8.3384   -1.8920 H   0  0  0  0  0  0  0  0  0  0  0  0
    2.9274    7.8262   -1.0051 H   0  0  0  0  0  0  0  0  0  0  0  0
    2.8642    7.8381    0.7570 H   0  0  0  0  0  0  0  0  0  0  0  0
    1.5144    9.9540    0.6961 H   0  0  0  0  0  0  0  0  0  0  0  0
    1.5691    9.9485   -1.0606 H   0  0  0  0  0  0  0  0  0  0  0  0
    4.1039   10.1019   -0.9460 H   0  0  0  0  0  0  0  0  0  0  0  0
    3.9913   10.1889    0.8191 H   0  0  0  0  0  0  0  0  0  0  0  0
    4.9985   12.2688    0.9115 H   0  0  0  0  0  0  0  0  0  0  0  0
    3.5061   14.5011   -0.2541 H   0  0  0  0  0  0  0  0  0  0  0  0
    3.8167   16.3563    1.0053 H   0  0  0  0  0  0  0  0  0  0  0  0
    7.4055   15.9651    1.8301 H   0  0  0  0  0  0  0  0  0  0  0  0
    8.7111   17.5879    3.0848 H   0  0  0  0  0  0  0  0  0  0  0  0
    7.6948   19.6797    3.8685 H   0  0  0  0  0  0  0  0  0  0  0  0
    5.8262   21.1884    4.0209 H   0  0  0  0  0  0  0  0  0  0  0  0
    3.5091   21.8041    3.4915 H   0  0  0  0  0  0  0  0  0  0  0  0
    2.0996   20.2776    2.1394 H   0  0  0  0  0  0  0  0  0  0  0  0
    2.9754   18.1436    1.3604 H   0  0  0  0  0  0  0  0  0  0  0  0
  1  2  2  0  0  0  0
  1  6  1  0  0  0  0
  1 38  1  0  0  0  0
  2  3  1  0  0  0  0
  2 39  1  0  0  0  0
  3  4  2  0  0  0  0
  3 40  1  0  0  0  0
  4  5  1  0  0  0  0
  4 10  1  0  0  0  0
  5  6  2  0  0  0  0
  5  7  1  0  0  0  0
  6 41  1  0  0  0  0
  7  8  2  0  0  0  0
  7 42  1  0  0  0  0
  8  9  1  0  0  0  0
  8 43  1  0  0  0  0
  9 10  2  0  0  0  0
  9 44  1  0  0  0  0
 10 11  1  0  0  0  0
 11 12  1  0  0  0  0
 11 45  1  0  0  0  0
 12 13  2  0  0  0  0
 12 14  1  0  0  0  0
 14 15  1  0  0  0  0
 14 46  1  0  0  0  0
 15 16  1  0  0  0  0
 15 47  1  0  0  0  0
 16 17  2  0  0  0  0
 16 18  1  0  0  0  0
 18 19  1  0  0  0  0
 18 48  1  0  0  0  0
 18 49  1  0  0  0  0
 19 20  1  0  0  0  0
 19 50  1  0  0  0  0
 19 51  1  0  0  0  0
 20 21  1  0  0  0  0
 20 52  1  0  0  0  0
 20 53  1  0  0  0  0
 21 22  2  0  0  0  0
 21 23  1  0  0  0  0
 23 24  1  0  0  0  0
 23 54  1  0  0  0  0
 24 25  1  0  0  0  0
 24 55  1  0  0  0  0
 25 26  2  0  0  0  0
 25 27  1  0  0  0  0
 27 28  1  0  0  0  0
 27 56  1  0  0  0  0
 28 29  2  0  0  0  0
 28 37  1  0  0  0  0
 29 30  1  0  0  0  0
 29 57  1  0  0  0  0
 30 31  2  0  0  0  0
 30 58  1  0  0  0  0
 31 32  1  0  0  0  0
 31 59  1  0  0  0  0
 32 33  2  0  0  0  0
 32 37  1  0  0  0  0
 33 34  1  0  0  0  0
 33 60  1  0  0  0  0
 34 35  2  0  0  0  0
 34 61  1  0  0  0  0
 35 36  1  0  0  0  0
 35 62  1  0  0  0  0
 36 37  2  0  0  0  0
 36 63  1  0  0  0  0
M  END
