
 OpenBabel10072616343D

 54 57  0  0  0  0  0  0  0  0999 V2000
   -0.0547    9.4680    4.8243 C   0  0  0  0  0  0  0  0  0  0  0  0
   -0.7904    8.2490    4.8026 O   0  0  0  0  0  0  0  0  0  0  0  0
    0.0091    7.1398    4.8983 C   0  0  0  0  0  0  0  0  0  0  0  0
    1.0942    6.8522    4.0639 C   0  0  0  0  0  0  0  0  0  0  0  0
    1.7958    5.6478    4.2174 C   0  0  0  0  0  0  0  0  0  0  0  0
    1.4423    4.7344    5.2239 C   0  0  0  0  0  0  0  0  0  0  0  0
    0.3370    5.0207    6.0365 C   0  0  0  0  0  0  0  0  0  0  0  0
   -0.3744    6.2114    5.8663 C   0  0  0  0  0  0  0  0  0  0  0  0
    2.1792    3.4220    5.3823 C   0  0  0  0  0  0  0  0  0  0  0  0
    3.7116    3.5462    5.4478 C   0  0  0  0  0  0  0  0  0  0  0  0
    4.1129    4.3825    6.5815 N   0  0  0  0  0  0  0  0  0  0  0  0
    5.4632    4.8029    6.5421 C   0  0  0  0  0  0  0  0  0  0  0  0
    6.3702    4.1398    5.8057 N   0  0  0  0  0  0  0  0  0  0  0  0
    7.6446    4.5846    5.8663 C   0  0  0  0  0  0  0  0  0  0  0  0
    8.6256    3.9148    5.1518 C   0  0  0  0  0  0  0  0  0  0  0  0
    9.9604    4.3234    5.1812 C   0  0  0  0  0  0  0  0  0  0  0  0
   10.3173    5.4305    5.9415 C   0  0  0  0  0  0  0  0  0  0  0  0
    9.3422    6.1183    6.6654 C   0  0  0  0  0  0  0  0  0  0  0  0
    8.0106    5.7136    6.6566 C   0  0  0  0  0  0  0  0  0  0  0  0
    7.1112    6.3846    7.3979 N   0  0  0  0  0  0  0  0  0  0  0  0
    5.8564    5.9007    7.3403 C   0  0  0  0  0  0  0  0  0  0  0  0
    4.8708    6.6275    8.0644 N   0  0  0  0  0  0  0  0  0  0  0  0
    4.2639    7.9496    7.2029 S   0  0  0  0  0  0  0  0  0  0  0  0
    4.5785    7.8325    5.7922 O   0  0  0  0  0  0  0  0  0  0  0  0
    2.9102    8.1150    7.6712 O   0  0  0  0  0  0  0  0  0  0  0  0
    5.1132    9.3999    7.7784 C   0  0  0  0  0  0  0  0  0  0  0  0
    6.0832    9.6112    8.7375 C   0  0  0  0  0  0  0  0  0  0  0  0
    6.3662   10.9979    8.9216 C   0  0  0  0  0  0  0  0  0  0  0  0
    5.6263   11.7895    8.0683 C   0  0  0  0  0  0  0  0  0  0  0  0
    4.6025   10.8671    7.0577 S   0  0  0  0  0  0  0  0  0  0  0  0
    1.3974    7.6804    3.0132 O   0  0  0  0  0  0  0  0  0  0  0  0
    2.7038    8.2447    3.1498 C   0  0  0  0  0  0  0  0  0  0  0  0
    0.2556    9.7428    3.8134 H   0  0  0  0  0  0  0  0  0  0  0  0
    0.8068    9.4318    5.5020 H   0  0  0  0  0  0  0  0  0  0  0  0
   -0.7268   10.2509    5.1863 H   0  0  0  0  0  0  0  0  0  0  0  0
    2.5997    5.4130    3.5231 H   0  0  0  0  0  0  0  0  0  0  0  0
    0.0130    4.3247    6.8079 H   0  0  0  0  0  0  0  0  0  0  0  0
   -1.2380    6.4181    6.4902 H   0  0  0  0  0  0  0  0  0  0  0  0
    1.9059    2.7812    4.5342 H   0  0  0  0  0  0  0  0  0  0  0  0
    1.8227    2.9076    6.2842 H   0  0  0  0  0  0  0  0  0  0  0  0
    4.0751    3.9720    4.5057 H   0  0  0  0  0  0  0  0  0  0  0  0
    4.1435    2.5433    5.5462 H   0  0  0  0  0  0  0  0  0  0  0  0
    3.9360    3.9237    7.4706 H   0  0  0  0  0  0  0  0  0  0  0  0
    8.3474    3.0481    4.5557 H   0  0  0  0  0  0  0  0  0  0  0  0
   10.7116    3.7785    4.6147 H   0  0  0  0  0  0  0  0  0  0  0  0
   11.3532    5.7598    5.9736 H   0  0  0  0  0  0  0  0  0  0  0  0
    9.6278    6.9859    7.2579 H   0  0  0  0  0  0  0  0  0  0  0  0
    4.0494    6.0376    8.2079 H   0  0  0  0  0  0  0  0  0  0  0  0
    6.5419    8.8032    9.3001 H   0  0  0  0  0  0  0  0  0  0  0  0
    7.0746   11.3952    9.6378 H   0  0  0  0  0  0  0  0  0  0  0  0
    5.6300   12.8672    7.9880 H   0  0  0  0  0  0  0  0  0  0  0  0
    2.8450    8.9513    2.3251 H   0  0  0  0  0  0  0  0  0  0  0  0
    3.4913    7.4878    3.0748 H   0  0  0  0  0  0  0  0  0  0  0  0
    2.7857    8.7996    4.0902 H   0  0  0  0  0  0  0  0  0  0  0  0
  1  2  1  0  0  0  0
  1 33  1  0  0  0  0
  1 34  1  0  0  0  0
  1 35  1  0  0  0  0
  2  3  1  0  0  0  0
  3  4  2  0  0  0  0
  3  8  1  0  0  0  0
  4  5  1  0  0  0  0
  4 31  1  0  0  0  0
  5  6  2  0  0  0  0
  5 36  1  0  0  0  0
  6  7  1  0  0  0  0
  6  9  1  0  0  0  0
  7  8  2  0  0  0  0
  7 37  1  0  0  0  0
  8 38  1  0  0  0  0
  9 10  1  0  0  0  0
  9 39  1  0  0  0  0
  9 40  1  0  0  0  0
 10 11  1  0  0  0  0
 10 41  1  0  0  0  0
 10 42  1  0  0  0  0
 11 12  1  0  0  0  0
 11 43  1  0  0  0  0
 12 13  2  0  0  0  0
 12 21  1  0  0  0  0
 13 14  1  0  0  0  0
 14 15  2  0  0  0  0
 14 19  1  0  0  0  0
 15 16  1  0  0  0  0
 15 44  1  0  0  0  0
 16 17  2  0  0  0  0
 16 45  1  0  0  0  0
 17 18  1  0  0  0  0
 17 46  1  0  0  0  0
 18 19  2  0  0  0  0
 18 47  1  0  0  0  0
 19 20  1  0  0  0  0
 20 21  2  0  0  0  0
 21 22  1  0  0  0  0
 22 23  1  0  0  0  0
 22 48  1  0  0  0  0
 23 24  2  0  0  0  0
 23 25  2  0  0  0  0
 23 26  1  0  0  0  0
 26 27  2  0  0  0  0
 26 30  1  0  0  0  0
 27 28  1  0  0  0  0
 27 49  1  0  0  0  0
 28 29  2  0  0  0  0
 28 50  1  0  0  0  0
 29 30  1  0  0  0  0
 29 51  1  0  0  0  0
 31 32  1  0  0  0  0
 32 52  1  0  0  0  0
 32 53  1  0  0  0  0
 32 54  1  0  0  0  0
M  END
