
 OpenBabel10072620083D

 20 20  0  0  0  0  0  0  0  0999 V2000
    1.4288    1.3082   -0.2730 C   0  0  0  0  0  0  0  0  0  0  0  0
    0.0460    1.1335   -0.1223 C   0  0  0  0  0  0  0  0  0  0  0  0
   -0.4746   -0.1312    0.1293 C   0  0  0  0  0  0  0  0  0  0  0  0
    0.3757   -1.2262    0.2317 C   0  0  0  0  0  0  0  0  0  0  0  0
    1.7552   -1.0466    0.0836 C   0  0  0  0  0  0  0  0  0  0  0  0
    2.3007    0.2239   -0.1623 C   0  0  0  0  0  0  0  0  0  0  0  0
    3.7012    0.2822   -0.3221 N   0  0  0  0  0  0  0  0  0  0  0  0
    4.6017    1.3242   -0.3923 C   0  0  0  0  0  0  0  0  0  0  0  0
    4.3855    2.9505   -0.0959 S   0  0  0  0  0  0  0  0  0  0  0  0
    5.8851    0.9157   -0.7364 N   0  0  0  0  0  0  0  0  0  0  0  0
    6.2141   -0.3738   -1.1806 N   0  0  0  0  0  0  0  0  0  0  0  0
   -2.1718   -0.3429    0.3038 Cl  0  0  0  0  0  0  0  0  0  0  0  0
    1.7733    2.3086   -0.5019 H   0  0  0  0  0  0  0  0  0  0  0  0
   -0.6136    1.9933   -0.2126 H   0  0  0  0  0  0  0  0  0  0  0  0
   -0.0235   -2.2183    0.4242 H   0  0  0  0  0  0  0  0  0  0  0  0
    2.3972   -1.9198    0.1710 H   0  0  0  0  0  0  0  0  0  0  0  0
    4.1708   -0.6111   -0.3044 H   0  0  0  0  0  0  0  0  0  0  0  0
    6.5785    1.6601   -0.8366 H   0  0  0  0  0  0  0  0  0  0  0  0
    5.5294   -0.6948   -1.8682 H   0  0  0  0  0  0  0  0  0  0  0  0
    6.2480   -1.0209   -0.3922 H   0  0  0  0  0  0  0  0  0  0  0  0
  1  2  2  0  0  0  0
  1  6  1  0  0  0  0
  1 13  1  0  0  0  0
  2  3  1  0  0  0  0
  2 14  1  0  0  0  0
  3  4  2  0  0  0  0
  3 12  1  0  0  0  0
  4  5  1  0  0  0  0
  4 15  1  0  0  0  0
  5  6  2  0  0  0  0
  5 16  1  0  0  0  0
  6  7  1  0  0  0  0
  7  8  1  0  0  0  0
  7 17  1  0  0  0  0
  8  9  2  0  0  0  0
  8 10  1  0  0  0  0
 10 11  1  0  0  0  0
 10 18  1  0  0  0  0
 11 19  1  0  0  0  0
 11 20  1  0  0  0  0
M  END
