
 OpenBabel10072619533D

 35 35  0  0  0  0  0  0  0  0999 V2000
    2.0711   -0.0557   -0.4209 C   0  0  0  0  0  0  0  0  0  0  0  0
    1.3401    1.1156   -0.2467 C   0  0  0  0  0  0  0  0  0  0  0  0
   -0.0355    1.0203   -0.0850 C   0  0  0  0  0  0  0  0  0  0  0  0
   -0.6883   -0.1674   -0.0982 N   0  0  0  0  0  0  0  0  0  0  0  0
    0.0257   -1.2965   -0.3043 C   0  0  0  0  0  0  0  0  0  0  0  0
    1.4068   -1.2786   -0.4506 C   0  0  0  0  0  0  0  0  0  0  0  0
   -0.7424   -2.4682   -0.3380 N   0  0  0  0  0  0  0  0  0  0  0  0
   -0.3618   -3.6828   -0.8455 C   0  0  0  0  0  0  0  0  0  0  0  0
    0.7074   -3.9385   -1.3936 O   0  0  0  0  0  0  0  0  0  0  0  0
   -1.3595   -4.6264   -0.7275 N   0  0  0  0  0  0  0  0  0  0  0  0
   -1.1895   -5.9581   -1.2947 C   0  0  0  0  0  0  0  0  0  0  0  0
   -0.3260   -6.8840   -0.4398 C   0  0  0  0  0  0  0  0  0  0  0  0
   -1.1378   -7.2656    1.1031 Cl  0  0  0  0  0  0  0  0  0  0  0  0
   -0.7486    2.2112    0.1166 N   0  0  0  0  0  0  0  0  0  0  0  0
   -2.0861    2.3816    0.3026 C   0  0  0  0  0  0  0  0  0  0  0  0
   -2.5351    3.5092    0.5124 O   0  0  0  0  0  0  0  0  0  0  0  0
   -2.8645    1.2762    0.2132 N   0  0  0  0  0  0  0  0  0  0  0  0
   -4.2758    1.2497    0.5185 C   0  0  0  0  0  0  0  0  0  0  0  0
   -5.0343    0.2429   -0.3422 C   0  0  0  0  0  0  0  0  0  0  0  0
   -4.4443   -1.4251   -0.0639 Cl  0  0  0  0  0  0  0  0  0  0  0  0
    3.1535   -0.0250   -0.5244 H   0  0  0  0  0  0  0  0  0  0  0  0
    1.8546    2.0701   -0.2341 H   0  0  0  0  0  0  0  0  0  0  0  0
    1.9807   -2.1906   -0.5713 H   0  0  0  0  0  0  0  0  0  0  0  0
   -1.7323   -2.3140   -0.2006 H   0  0  0  0  0  0  0  0  0  0  0  0
   -1.9531   -4.5516    0.0902 H   0  0  0  0  0  0  0  0  0  0  0  0
   -0.7244   -5.8535   -2.2826 H   0  0  0  0  0  0  0  0  0  0  0  0
   -2.1901   -6.3818   -1.4435 H   0  0  0  0  0  0  0  0  0  0  0  0
    0.6409   -6.4340   -0.2004 H   0  0  0  0  0  0  0  0  0  0  0  0
   -0.1541   -7.8309   -0.9568 H   0  0  0  0  0  0  0  0  0  0  0  0
   -0.2322    3.0754    0.1615 H   0  0  0  0  0  0  0  0  0  0  0  0
   -2.3524    0.3934    0.2233 H   0  0  0  0  0  0  0  0  0  0  0  0
   -4.6957    2.2476    0.3773 H   0  0  0  0  0  0  0  0  0  0  0  0
   -4.3689    1.0040    1.5809 H   0  0  0  0  0  0  0  0  0  0  0  0
   -4.9045    0.4633   -1.4050 H   0  0  0  0  0  0  0  0  0  0  0  0
   -6.1028    0.2602   -0.1059 H   0  0  0  0  0  0  0  0  0  0  0  0
  1  2  2  0  0  0  0
  1  6  1  0  0  0  0
  1 21  1  0  0  0  0
  2  3  1  0  0  0  0
  2 22  1  0  0  0  0
  3  4  2  0  0  0  0
  3 14  1  0  0  0  0
  4  5  1  0  0  0  0
  5  6  2  0  0  0  0
  5  7  1  0  0  0  0
  6 23  1  0  0  0  0
  7  8  1  0  0  0  0
  7 24  1  0  0  0  0
  8  9  2  0  0  0  0
  8 10  1  0  0  0  0
 10 11  1  0  0  0  0
 10 25  1  0  0  0  0
 11 12  1  0  0  0  0
 11 26  1  0  0  0  0
 11 27  1  0  0  0  0
 12 13  1  0  0  0  0
 12 28  1  0  0  0  0
 12 29  1  0  0  0  0
 14 15  1  0  0  0  0
 14 30  1  0  0  0  0
 15 16  2  0  0  0  0
 15 17  1  0  0  0  0
 17 18  1  0  0  0  0
 17 31  1  0  0  0  0
 18 19  1  0  0  0  0
 18 32  1  0  0  0  0
 18 33  1  0  0  0  0
 19 20  1  0  0  0  0
 19 34  1  0  0  0  0
 19 35  1  0  0  0  0
M  END
