
 OpenBabel10072619513D

 50 52  0  0  0  0  0  0  0  0999 V2000
   12.9645    8.2530    7.2296 C   0  0  0  0  0  0  0  0  0  0  0  0
   12.3003    7.2863    6.2651 C   0  0  0  0  0  0  0  0  0  0  0  0
   13.2179    7.0327    5.2026 O   0  0  0  0  0  0  0  0  0  0  0  0
   12.8091    6.1807    4.2155 C   0  0  0  0  0  0  0  0  0  0  0  0
   11.5567    5.5784    4.1175 C   0  0  0  0  0  0  0  0  0  0  0  0
   11.2634    4.7285    3.0419 C   0  0  0  0  0  0  0  0  0  0  0  0
   12.2134    4.4755    2.0523 C   0  0  0  0  0  0  0  0  0  0  0  0
   13.4704    5.0808    2.1570 C   0  0  0  0  0  0  0  0  0  0  0  0
   13.7639    5.9273    3.2304 C   0  0  0  0  0  0  0  0  0  0  0  0
   11.9870    3.6576    0.9284 N   0  0  0  0  0  0  0  0  0  0  0  0
   10.8383    2.9962    0.5804 C   0  0  0  0  0  0  0  0  0  0  0  0
    9.7983    2.9557    1.2362 O   0  0  0  0  0  0  0  0  0  0  0  0
   10.8406    2.3398   -0.6172 N   0  0  0  0  0  0  0  0  0  0  0  0
   11.8700    2.2880   -1.5075 C   0  0  0  0  0  0  0  0  0  0  0  0
   13.0860    2.7672   -1.3929 N   0  0  0  0  0  0  0  0  0  0  0  0
   13.8331    2.5289   -2.5287 N   0  0  0  0  0  0  0  0  0  0  0  0
   13.1365    1.9003   -3.4578 C   0  0  0  0  0  0  0  0  0  0  0  0
   11.5318    1.4957   -2.9741 S   0  0  0  0  0  0  0  0  0  0  0  0
   13.6305    1.5738   -4.8283 C   0  0  0  0  0  0  0  0  0  0  0  0
   13.1394    2.6061   -5.6843 O   0  0  0  0  0  0  0  0  0  0  0  0
   13.7679    2.7497   -6.8939 C   0  0  0  0  0  0  0  0  0  0  0  0
   14.3913    1.6963   -7.5668 C   0  0  0  0  0  0  0  0  0  0  0  0
   14.9879    1.9166   -8.8051 C   0  0  0  0  0  0  0  0  0  0  0  0
   14.9470    3.1820   -9.3850 C   0  0  0  0  0  0  0  0  0  0  0  0
   14.2943    4.2449   -8.7441 C   0  0  0  0  0  0  0  0  0  0  0  0
   13.7132    4.0357   -7.4739 C   0  0  0  0  0  0  0  0  0  0  0  0
   12.9850    5.1438   -6.7526 C   0  0  0  0  0  0  0  0  0  0  0  0
   14.2509    5.5836   -9.4281 C   0  0  0  0  0  0  0  0  0  0  0  0
   12.3005    8.4906    8.0660 H   0  0  0  0  0  0  0  0  0  0  0  0
   13.2336    9.1823    6.7156 H   0  0  0  0  0  0  0  0  0  0  0  0
   13.8925    7.8242    7.6230 H   0  0  0  0  0  0  0  0  0  0  0  0
   11.3824    7.7436    5.8783 H   0  0  0  0  0  0  0  0  0  0  0  0
   12.0644    6.3548    6.7929 H   0  0  0  0  0  0  0  0  0  0  0  0
   10.7773    5.7494    4.8528 H   0  0  0  0  0  0  0  0  0  0  0  0
   10.2732    4.2853    3.0078 H   0  0  0  0  0  0  0  0  0  0  0  0
   14.2338    4.9122    1.4024 H   0  0  0  0  0  0  0  0  0  0  0  0
   14.7420    6.3985    3.2922 H   0  0  0  0  0  0  0  0  0  0  0  0
   12.7682    3.5591    0.2860 H   0  0  0  0  0  0  0  0  0  0  0  0
    9.9693    1.8962   -0.8660 H   0  0  0  0  0  0  0  0  0  0  0  0
   13.2433    0.6020   -5.1538 H   0  0  0  0  0  0  0  0  0  0  0  0
   14.7270    1.5481   -4.8174 H   0  0  0  0  0  0  0  0  0  0  0  0
   14.4118    0.6901   -7.1620 H   0  0  0  0  0  0  0  0  0  0  0  0
   15.4757    1.0985   -9.3276 H   0  0  0  0  0  0  0  0  0  0  0  0
   15.4200    3.3318  -10.3534 H   0  0  0  0  0  0  0  0  0  0  0  0
   13.3452    6.1333   -7.0493 H   0  0  0  0  0  0  0  0  0  0  0  0
   13.1397    5.0808   -5.6696 H   0  0  0  0  0  0  0  0  0  0  0  0
   11.9128    5.0798   -6.9652 H   0  0  0  0  0  0  0  0  0  0  0  0
   14.6107    5.5196  -10.4600 H   0  0  0  0  0  0  0  0  0  0  0  0
   14.8844    6.3002   -8.8975 H   0  0  0  0  0  0  0  0  0  0  0  0
   13.2247    5.9612   -9.4717 H   0  0  0  0  0  0  0  0  0  0  0  0
  1  2  1  0  0  0  0
  1 29  1  0  0  0  0
  1 30  1  0  0  0  0
  1 31  1  0  0  0  0
  2  3  1  0  0  0  0
  2 32  1  0  0  0  0
  2 33  1  0  0  0  0
  3  4  1  0  0  0  0
  4  5  2  0  0  0  0
  4  9  1  0  0  0  0
  5  6  1  0  0  0  0
  5 34  1  0  0  0  0
  6  7  2  0  0  0  0
  6 35  1  0  0  0  0
  7  8  1  0  0  0  0
  7 10  1  0  0  0  0
  8  9  2  0  0  0  0
  8 36  1  0  0  0  0
  9 37  1  0  0  0  0
 10 11  1  0  0  0  0
 10 38  1  0  0  0  0
 11 12  2  0  0  0  0
 11 13  1  0  0  0  0
 13 14  1  0  0  0  0
 13 39  1  0  0  0  0
 14 15  2  0  0  0  0
 14 18  1  0  0  0  0
 15 16  1  0  0  0  0
 16 17  2  0  0  0  0
 17 18  1  0  0  0  0
 17 19  1  0  0  0  0
 19 20  1  0  0  0  0
 19 40  1  0  0  0  0
 19 41  1  0  0  0  0
 20 21  1  0  0  0  0
 21 22  2  0  0  0  0
 21 26  1  0  0  0  0
 22 23  1  0  0  0  0
 22 42  1  0  0  0  0
 23 24  2  0  0  0  0
 23 43  1  0  0  0  0
 24 25  1  0  0  0  0
 24 44  1  0  0  0  0
 25 26  2  0  0  0  0
 25 28  1  0  0  0  0
 26 27  1  0  0  0  0
 27 45  1  0  0  0  0
 27 46  1  0  0  0  0
 27 47  1  0  0  0  0
 28 48  1  0  0  0  0
 28 49  1  0  0  0  0
 28 50  1  0  0  0  0
M  END
