
 OpenBabel10072619513D

 70 75  0  0  0  0  0  0  0  0999 V2000
    1.4737    2.7813   -4.4770 C   0  0  0  0  0  0  0  0  0  0  0  0
    1.3871    2.1358   -5.7182 C   0  0  0  0  0  0  0  0  0  0  0  0
    2.2706    1.0977   -6.0280 C   0  0  0  0  0  0  0  0  0  0  0  0
    3.2328    0.6862   -5.1040 C   0  0  0  0  0  0  0  0  0  0  0  0
    3.3093    1.3259   -3.8614 C   0  0  0  0  0  0  0  0  0  0  0  0
    2.4218    2.3703   -3.5295 C   0  0  0  0  0  0  0  0  0  0  0  0
    2.4839    2.9863   -2.2033 C   0  0  0  0  0  0  0  0  0  0  0  0
    2.3068    4.2977   -1.9551 N   0  0  0  0  0  0  0  0  0  0  0  0
    2.5797    4.3894   -0.6122 N   0  0  0  0  0  0  0  0  0  0  0  0
    2.7670    3.1990    0.0250 N   0  0  0  0  0  0  0  0  0  0  0  0
    2.7107    2.3282   -0.9769 C   0  0  0  0  0  0  0  0  0  0  0  0
    2.6875    5.6241    0.0907 C   0  0  0  0  0  0  0  0  0  0  0  0
    3.1435    5.6326    1.4234 C   0  0  0  0  0  0  0  0  0  0  0  0
    3.3164    6.8503    2.1114 C   0  0  0  0  0  0  0  0  0  0  0  0
    3.0173    8.0706    1.4850 C   0  0  0  0  0  0  0  0  0  0  0  0
    2.5449    8.0429    0.1559 C   0  0  0  0  0  0  0  0  0  0  0  0
    2.3782    6.8342   -0.5387 C   0  0  0  0  0  0  0  0  0  0  0  0
    3.2017    9.3806    2.1266 C   0  0  0  0  0  0  0  0  0  0  0  0
    4.2746   10.1284    1.8443 C   0  0  0  0  0  0  0  0  0  0  0  0
    4.4880   11.4634    2.4145 C   0  0  0  0  0  0  0  0  0  0  0  0
    4.3064   12.6547    1.6946 C   0  0  0  0  0  0  0  0  0  0  0  0
    4.5018   13.9015    2.3189 C   0  0  0  0  0  0  0  0  0  0  0  0
    4.9282   13.9767    3.6556 C   0  0  0  0  0  0  0  0  0  0  0  0
    5.1126   12.7956    4.3787 C   0  0  0  0  0  0  0  0  0  0  0  0
    4.8787   11.5529    3.7659 C   0  0  0  0  0  0  0  0  0  0  0  0
    5.1886   15.2494    4.2409 N   0  0  0  0  0  0  0  0  0  0  0  0
    4.9725   16.3939    3.5354 N   0  0  0  0  0  0  0  0  0  0  0  0
    5.3758   17.3310    4.3836 C   0  0  0  0  0  0  0  0  0  0  0  0
    5.8533   16.7633    5.5840 C   0  0  0  0  0  0  0  0  0  0  0  0
    5.6952   15.4270    5.5089 N   0  0  0  0  0  0  0  0  0  0  0  0
    6.4004   17.4972    6.7325 C   0  0  0  0  0  0  0  0  0  0  0  0
    6.2626   17.0275    8.0482 C   0  0  0  0  0  0  0  0  0  0  0  0
    6.7157   17.7982    9.1317 C   0  0  0  0  0  0  0  0  0  0  0  0
    7.3299   19.0319    8.8996 C   0  0  0  0  0  0  0  0  0  0  0  0
    7.5031   19.5021    7.5986 C   0  0  0  0  0  0  0  0  0  0  0  0
    7.0450   18.7348    6.5232 C   0  0  0  0  0  0  0  0  0  0  0  0
    7.8548   20.0852   10.2830 S   0  0  0  0  0  0  0  0  0  0  0  0
    7.4966   19.3052   11.4648 O   0  0  0  0  0  0  0  0  0  0  0  0
    9.2861   20.2417   10.0424 O   0  0  0  0  0  0  0  0  0  0  0  0
    7.0537   21.2893   10.0705 O   0  5  0  0  0  0  0  0  0  0  0  0
    3.8132   12.6767   -0.0618 S   0  0  0  0  0  0  0  0  0  0  0  0
    2.3646   12.5318    0.0209 O   0  0  0  0  0  0  0  0  0  0  0  0
    4.2714   13.9880   -0.5252 O   0  0  0  0  0  0  0  0  0  0  0  0
    4.5318   11.5586   -0.6709 O   0  5  0  0  0  0  0  0  0  0  0  0
    3.9037    6.8072    3.8367 S   0  0  0  0  0  0  0  0  0  0  0  0
    5.2030    7.4693    3.7729 O   0  0  0  0  0  0  0  0  0  0  0  0
    2.8510    7.5171    4.5626 O   0  0  0  0  0  0  0  0  0  0  0  0
    3.9775    5.3797    4.1497 O   0  5  0  0  0  0  0  0  0  0  0  0
    2.1687    0.2471   -7.6309 S   0  0  0  0  0  0  0  0  0  0  0  0
    3.4744    0.5282   -8.2220 O   0  0  0  0  0  0  0  0  0  0  0  0
    1.9481   -1.1417   -7.2347 O   0  0  0  0  0  0  0  0  0  0  0  0
    1.0331    0.8858   -8.2914 O   0  5  0  0  0  0  0  0  0  0  0  0
    0.7928    3.5992   -4.2512 H   0  0  0  0  0  0  0  0  0  0  0  0
    0.6328    2.4354   -6.4400 H   0  0  0  0  0  0  0  0  0  0  0  0
    3.9090   -0.1250   -5.3622 H   0  0  0  0  0  0  0  0  0  0  0  0
    4.0770    1.0011   -3.1629 H   0  0  0  0  0  0  0  0  0  0  0  0
    2.8387    1.2726   -0.7784 H   0  0  0  0  0  0  0  0  0  0  0  0
    3.3882    4.7023    1.9333 H   0  0  0  0  0  0  0  0  0  0  0  0
    2.3264    8.9823   -0.3555 H   0  0  0  0  0  0  0  0  0  0  0  0
    2.0284    6.8647   -1.5679 H   0  0  0  0  0  0  0  0  0  0  0  0
    2.4532    9.6944    2.8503 H   0  0  0  0  0  0  0  0  0  0  0  0
    5.0232    9.7865    1.1321 H   0  0  0  0  0  0  0  0  0  0  0  0
    4.3300   14.8011    1.7308 H   0  0  0  0  0  0  0  0  0  0  0  0
    5.4240   12.8216    5.4183 H   0  0  0  0  0  0  0  0  0  0  0  0
    5.0065   10.6368    4.3467 H   0  0  0  0  0  0  0  0  0  0  0  0
    5.3185   18.3704    4.0939 H   0  0  0  0  0  0  0  0  0  0  0  0
    5.7862   16.0685    8.2413 H   0  0  0  0  0  0  0  0  0  0  0  0
    6.5754   17.4503   10.1519 H   0  0  0  0  0  0  0  0  0  0  0  0
    7.9785   20.4662    7.4373 H   0  0  0  0  0  0  0  0  0  0  0  0
    7.2015   19.1298    5.5227 H   0  0  0  0  0  0  0  0  0  0  0  0
  1  2  2  0  0  0  0
  1  6  1  0  0  0  0
  1 53  1  0  0  0  0
  2  3  1  0  0  0  0
  2 54  1  0  0  0  0
  3  4  2  0  0  0  0
  3 49  1  0  0  0  0
  4  5  1  0  0  0  0
  4 55  1  0  0  0  0
  5  6  2  0  0  0  0
  5 56  1  0  0  0  0
  6  7  1  0  0  0  0
  7  8  2  0  0  0  0
  7 11  1  0  0  0  0
  8  9  1  0  0  0  0
  9 10  1  0  0  0  0
  9 12  1  0  0  0  0
 10 11  2  0  0  0  0
 11 57  1  0  0  0  0
 12 13  2  0  0  0  0
 12 17  1  0  0  0  0
 13 14  1  0  0  0  0
 13 58  1  0  0  0  0
 14 15  2  0  0  0  0
 14 45  1  0  0  0  0
 15 16  1  0  0  0  0
 15 18  1  0  0  0  0
 16 17  2  0  0  0  0
 16 59  1  0  0  0  0
 17 60  1  0  0  0  0
 18 19  2  0  0  0  0
 18 61  1  0  0  0  0
 19 20  1  0  0  0  0
 19 62  1  0  0  0  0
 20 21  2  0  0  0  0
 20 25  1  0  0  0  0
 21 22  1  0  0  0  0
 21 41  1  0  0  0  0
 22 23  2  0  0  0  0
 22 63  1  0  0  0  0
 23 24  1  0  0  0  0
 23 26  1  0  0  0  0
 24 25  2  0  0  0  0
 24 64  1  0  0  0  0
 25 65  1  0  0  0  0
 26 27  1  0  0  0  0
 26 30  1  0  0  0  0
 27 28  2  0  0  0  0
 28 29  1  0  0  0  0
 28 66  1  0  0  0  0
 29 30  2  0  0  0  0
 29 31  1  0  0  0  0
 31 32  2  0  0  0  0
 31 36  1  0  0  0  0
 32 33  1  0  0  0  0
 32 67  1  0  0  0  0
 33 34  2  0  0  0  0
 33 68  1  0  0  0  0
 34 35  1  0  0  0  0
 34 37  1  0  0  0  0
 35 36  2  0  0  0  0
 35 69  1  0  0  0  0
 36 70  1  0  0  0  0
 37 38  2  0  0  0  0
 37 39  2  0  0  0  0
 37 40  1  0  0  0  0
 41 42  2  0  0  0  0
 41 43  2  0  0  0  0
 41 44  1  0  0  0  0
 45 46  2  0  0  0  0
 45 47  2  0  0  0  0
 45 48  1  0  0  0  0
 49 50  2  0  0  0  0
 49 51  2  0  0  0  0
 49 52  1  0  0  0  0
M  CHG  4  40  -1  44  -1  48  -1  52  -1
M  END
