
 OpenBabel10072620173D

 22 22  0  0  0  0  0  0  0  0999 V2000
    2.9476   -3.8828    2.1422 C   0  0  0  0  0  0  0  0  0  0  0  0
    2.8943   -2.4951    2.5836 N   0  0  0  0  0  0  0  0  0  0  0  0
    3.0527   -1.2782    1.4383 S   0  0  0  0  0  0  0  0  0  0  0  0
    2.4555   -1.7417    0.2049 O   0  0  0  0  0  0  0  0  0  0  0  0
    2.6339   -0.0513    2.0748 O   0  0  0  0  0  0  0  0  0  0  0  0
    4.8148   -1.1870    1.2263 C   0  0  0  0  0  0  0  0  0  0  0  0
    5.3885   -1.5441    0.0019 C   0  0  0  0  0  0  0  0  0  0  0  0
    6.7707   -1.4378   -0.1725 C   0  0  0  0  0  0  0  0  0  0  0  0
    7.5667   -0.9751    0.8870 C   0  0  0  0  0  0  0  0  0  0  0  0
    6.9882   -0.6137    2.1132 C   0  0  0  0  0  0  0  0  0  0  0  0
    5.6056   -0.7189    2.2837 C   0  0  0  0  0  0  0  0  0  0  0  0
    9.0215   -0.8623    0.7093 N   0  3  0  0  0  0  0  0  0  0  0  0
    9.4928   -1.1700   -0.3958 O   0  0  0  0  0  0  0  0  0  0  0  0
    9.6910   -0.4711    1.6741 O   0  5  0  0  0  0  0  0  0  0  0  0
    3.0984   -4.5260    3.0140 H   0  0  0  0  0  0  0  0  0  0  0  0
    3.7856   -4.0467    1.4605 H   0  0  0  0  0  0  0  0  0  0  0  0
    2.0058   -4.1658    1.6639 H   0  0  0  0  0  0  0  0  0  0  0  0
    2.2418   -2.2512    3.3279 H   0  0  0  0  0  0  0  0  0  0  0  0
    4.7676   -1.8956   -0.8212 H   0  0  0  0  0  0  0  0  0  0  0  0
    7.2077   -1.7072   -1.1321 H   0  0  0  0  0  0  0  0  0  0  0  0
    7.5972   -0.2434    2.9364 H   0  0  0  0  0  0  0  0  0  0  0  0
    5.1518   -0.4338    3.2309 H   0  0  0  0  0  0  0  0  0  0  0  0
  1  2  1  0  0  0  0
  1 15  1  0  0  0  0
  1 16  1  0  0  0  0
  1 17  1  0  0  0  0
  2  3  1  0  0  0  0
  2 18  1  0  0  0  0
  3  4  2  0  0  0  0
  3  5  2  0  0  0  0
  3  6  1  0  0  0  0
  6  7  2  0  0  0  0
  6 11  1  0  0  0  0
  7  8  1  0  0  0  0
  7 19  1  0  0  0  0
  8  9  2  0  0  0  0
  8 20  1  0  0  0  0
  9 10  1  0  0  0  0
  9 12  1  0  0  0  0
 10 11  2  0  0  0  0
 10 21  1  0  0  0  0
 11 22  1  0  0  0  0
 12 13  2  0  0  0  0
 12 14  1  0  0  0  0
M  CHG  2  12   1  14  -1
M  END
