
 OpenBabel10072620073D

 33 34  0  0  0  0  0  0  0  0999 V2000
    2.3077   -0.6562    1.0380 C   0  0  0  0  0  0  0  0  0  0  0  0
    0.8560   -0.4328    0.7246 C   0  0  0  0  0  0  0  0  0  0  0  0
    0.0733    0.4060    1.5342 C   0  0  0  0  0  0  0  0  0  0  0  0
   -1.2833    0.6049    1.2577 C   0  0  0  0  0  0  0  0  0  0  0  0
   -1.8480   -0.0414    0.1526 C   0  0  0  0  0  0  0  0  0  0  0  0
   -1.0735   -0.8588   -0.6767 C   0  0  0  0  0  0  0  0  0  0  0  0
    0.2816   -1.0380   -0.4008 C   0  0  0  0  0  0  0  0  0  0  0  0
   -3.5854    0.1567   -0.2088 S   0  0  0  0  0  0  0  0  0  0  0  0
   -3.7586   -0.1147   -1.6252 O   0  0  0  0  0  0  0  0  0  0  0  0
   -4.2623   -0.6476    0.7846 O   0  0  0  0  0  0  0  0  0  0  0  0
   -3.8602    1.8216    0.0386 N   0  0  0  0  0  0  0  0  0  0  0  0
   -3.2348    2.6884   -0.9934 C   0  0  0  0  0  0  0  0  0  0  0  0
   -2.9003    4.0519   -0.4301 C   0  0  0  0  0  0  0  0  0  0  0  0
   -2.9537    4.4571    0.8463 C   0  0  0  0  0  0  0  0  0  0  0  0
   -5.2476    2.0930    0.3112 C   0  0  0  0  0  0  0  0  0  0  0  0
   -5.9136    2.9414   -0.4366 N   0  0  0  0  0  0  0  0  0  0  0  0
   -7.1778    3.1284    0.0791 C   0  0  0  0  0  0  0  0  0  0  0  0
   -7.4601    2.4316    1.2319 C   0  0  0  0  0  0  0  0  0  0  0  0
   -6.0688    1.5791    1.7396 S   0  0  0  0  0  0  0  0  0  0  0  0
    2.9304    0.0671    0.5051 H   0  0  0  0  0  0  0  0  0  0  0  0
    2.6148   -1.6676    0.7500 H   0  0  0  0  0  0  0  0  0  0  0  0
    2.4988   -0.5587    2.1114 H   0  0  0  0  0  0  0  0  0  0  0  0
    0.5191    0.9008    2.3941 H   0  0  0  0  0  0  0  0  0  0  0  0
   -1.8759    1.2441    1.9073 H   0  0  0  0  0  0  0  0  0  0  0  0
   -1.5197   -1.3699   -1.5281 H   0  0  0  0  0  0  0  0  0  0  0  0
    0.8785   -1.6607   -1.0647 H   0  0  0  0  0  0  0  0  0  0  0  0
   -3.9066    2.8054   -1.8540 H   0  0  0  0  0  0  0  0  0  0  0  0
   -2.3037    2.2533   -1.3754 H   0  0  0  0  0  0  0  0  0  0  0  0
   -2.6282    4.7884   -1.1833 H   0  0  0  0  0  0  0  0  0  0  0  0
   -3.2357    3.7902    1.6544 H   0  0  0  0  0  0  0  0  0  0  0  0
   -2.7347    5.4857    1.1179 H   0  0  0  0  0  0  0  0  0  0  0  0
   -7.8598    3.7970   -0.4250 H   0  0  0  0  0  0  0  0  0  0  0  0
   -8.3732    2.4038    1.8081 H   0  0  0  0  0  0  0  0  0  0  0  0
  1  2  1  0  0  0  0
  1 20  1  0  0  0  0
  1 21  1  0  0  0  0
  1 22  1  0  0  0  0
  2  3  2  0  0  0  0
  2  7  1  0  0  0  0
  3  4  1  0  0  0  0
  3 23  1  0  0  0  0
  4  5  2  0  0  0  0
  4 24  1  0  0  0  0
  5  6  1  0  0  0  0
  5  8  1  0  0  0  0
  6  7  2  0  0  0  0
  6 25  1  0  0  0  0
  7 26  1  0  0  0  0
  8  9  2  0  0  0  0
  8 10  2  0  0  0  0
  8 11  1  0  0  0  0
 11 12  1  0  0  0  0
 11 15  1  0  0  0  0
 12 13  1  0  0  0  0
 12 27  1  0  0  0  0
 12 28  1  0  0  0  0
 13 14  2  0  0  0  0
 13 29  1  0  0  0  0
 14 30  1  0  0  0  0
 14 31  1  0  0  0  0
 15 16  2  0  0  0  0
 15 19  1  0  0  0  0
 16 17  1  0  0  0  0
 17 18  2  0  0  0  0
 17 32  1  0  0  0  0
 18 19  1  0  0  0  0
 18 33  1  0  0  0  0
M  END
