
 OpenBabel10072620163D

 65 69  0  0  0  0  0  0  0  0999 V2000
    2.8409   -0.2691   -0.1374 C   0  0  0  0  0  0  0  0  0  0  0  0
    2.7948    1.2251   -0.0015 C   0  0  0  0  0  0  0  0  0  0  0  0
    1.5657    1.8966    0.1306 C   0  0  0  0  0  0  0  0  0  0  0  0
    1.5128    3.2854    0.2523 C   0  0  0  0  0  0  0  0  0  0  0  0
    2.7229    3.9971    0.2517 C   0  0  0  0  0  0  0  0  0  0  0  0
    3.9488    3.3421    0.1158 C   0  0  0  0  0  0  0  0  0  0  0  0
    3.9844    1.9584   -0.0138 C   0  0  0  0  0  0  0  0  0  0  0  0
    0.3435    4.0619    0.3938 N   0  0  0  0  0  0  0  0  0  0  0  0
   -1.0136    3.8000    0.3611 C   0  0  0  0  0  0  0  0  0  0  0  0
   -1.7900    2.3350    0.0903 S   0  0  0  0  0  0  0  0  0  0  0  0
   -1.7541    4.9380    0.6322 N   0  0  0  0  0  0  0  0  0  0  0  0
   -1.6670    5.7696   -0.2990 N   0  0  0  0  0  0  0  0  0  0  0  0
   -2.3616    6.9606   -0.0443 C   0  0  0  0  0  0  0  0  0  0  0  0
   -3.5165    7.1325    0.6876 C   0  0  0  0  0  0  0  0  0  0  0  0
   -3.8041    8.4806    0.6801 N   0  0  0  0  0  0  0  0  0  0  0  0
   -2.8821    9.1606   -0.1048 C   0  0  0  0  0  0  0  0  0  0  0  0
   -1.9687    8.2114   -0.5801 C   0  0  0  0  0  0  0  0  0  0  0  0
   -0.9179    8.6269   -1.4229 C   0  0  0  0  0  0  0  0  0  0  0  0
   -0.8226    9.9805   -1.7698 C   0  0  0  0  0  0  0  0  0  0  0  0
   -1.7144   10.9219   -1.2575 C   0  0  0  0  0  0  0  0  0  0  0  0
   -2.7676   10.5234   -0.4293 C   0  0  0  0  0  0  0  0  0  0  0  0
    0.5070   10.5112   -2.8295 S   0  0  0  0  0  0  0  0  0  0  0  0
    0.8227   11.8793   -2.4785 O   0  0  0  0  0  0  0  0  0  0  0  0
    1.5234    9.4799   -2.7987 O   0  0  0  0  0  0  0  0  0  0  0  0
   -0.1879   10.5084   -4.3758 N   0  0  0  0  0  0  0  0  0  0  0  0
   -0.6104    9.1874   -4.9235 C   0  0  0  0  0  0  0  0  0  0  0  0
   -0.9142    9.3254   -6.4209 C   0  0  0  0  0  0  0  0  0  0  0  0
   -1.9141   10.3298   -6.6577 O   0  0  0  0  0  0  0  0  0  0  0  0
   -1.4580   11.6061   -6.1821 C   0  0  0  0  0  0  0  0  0  0  0  0
   -1.1970   11.5635   -4.6716 C   0  0  0  0  0  0  0  0  0  0  0  0
   -4.9527    9.0821    1.3517 C   0  0  0  0  0  0  0  0  0  0  0  0
   -4.6453    9.4355    2.7877 C   0  0  0  0  0  0  0  0  0  0  0  0
   -4.1507   10.7033    3.1298 C   0  0  0  0  0  0  0  0  0  0  0  0
   -3.8556   11.0151    4.4596 C   0  0  0  0  0  0  0  0  0  0  0  0
   -4.0509   10.0612    5.4556 C   0  0  0  0  0  0  0  0  0  0  0  0
   -4.5413    8.7984    5.1346 C   0  0  0  0  0  0  0  0  0  0  0  0
   -4.8358    8.4870    3.8054 C   0  0  0  0  0  0  0  0  0  0  0  0
   -3.6787   10.4436    7.0911 Cl  0  0  0  0  0  0  0  0  0  0  0  0
   -4.2928    6.2624    1.3279 O   0  0  0  0  0  0  0  0  0  0  0  0
    1.8434   -0.7129   -0.0562 H   0  0  0  0  0  0  0  0  0  0  0  0
    3.4622   -0.6979    0.6551 H   0  0  0  0  0  0  0  0  0  0  0  0
    3.2555   -0.5460   -1.1120 H   0  0  0  0  0  0  0  0  0  0  0  0
    0.6724    1.2872    0.1512 H   0  0  0  0  0  0  0  0  0  0  0  0
    2.7328    5.0806    0.3471 H   0  0  0  0  0  0  0  0  0  0  0  0
    4.8738    3.9132    0.1119 H   0  0  0  0  0  0  0  0  0  0  0  0
    4.9418    1.4533   -0.1198 H   0  0  0  0  0  0  0  0  0  0  0  0
    0.5096    5.0523    0.5350 H   0  0  0  0  0  0  0  0  0  0  0  0
   -0.2006    7.9007   -1.7976 H   0  0  0  0  0  0  0  0  0  0  0  0
   -1.6024   11.9771   -1.4998 H   0  0  0  0  0  0  0  0  0  0  0  0
   -3.4681   11.2606   -0.0502 H   0  0  0  0  0  0  0  0  0  0  0  0
   -1.5141    8.8541   -4.4015 H   0  0  0  0  0  0  0  0  0  0  0  0
    0.1787    8.4422   -4.7873 H   0  0  0  0  0  0  0  0  0  0  0  0
   -1.2995    8.3775   -6.8102 H   0  0  0  0  0  0  0  0  0  0  0  0
   -0.0107    9.5799   -6.9877 H   0  0  0  0  0  0  0  0  0  0  0  0
   -2.2377   12.3412   -6.4054 H   0  0  0  0  0  0  0  0  0  0  0  0
   -0.5559   11.8940   -6.7354 H   0  0  0  0  0  0  0  0  0  0  0  0
   -2.1304   11.3283   -4.1496 H   0  0  0  0  0  0  0  0  0  0  0  0
   -0.8379   12.5440   -4.3463 H   0  0  0  0  0  0  0  0  0  0  0  0
   -5.7925    8.3799    1.2917 H   0  0  0  0  0  0  0  0  0  0  0  0
   -5.2585    9.9706    0.7882 H   0  0  0  0  0  0  0  0  0  0  0  0
   -3.9884   11.4607    2.3671 H   0  0  0  0  0  0  0  0  0  0  0  0
   -3.4707   12.0002    4.7104 H   0  0  0  0  0  0  0  0  0  0  0  0
   -4.6914    8.0509    5.9089 H   0  0  0  0  0  0  0  0  0  0  0  0
   -5.2107    7.4930    3.5655 H   0  0  0  0  0  0  0  0  0  0  0  0
   -3.8808    5.3843    1.1990 H   0  0  0  0  0  0  0  0  0  0  0  0
  1  2  1  0  0  0  0
  1 40  1  0  0  0  0
  1 41  1  0  0  0  0
  1 42  1  0  0  0  0
  2  3  2  0  0  0  0
  2  7  1  0  0  0  0
  3  4  1  0  0  0  0
  3 43  1  0  0  0  0
  4  5  2  0  0  0  0
  4  8  1  0  0  0  0
  5  6  1  0  0  0  0
  5 44  1  0  0  0  0
  6  7  2  0  0  0  0
  6 45  1  0  0  0  0
  7 46  1  0  0  0  0
  8  9  1  0  0  0  0
  8 47  1  0  0  0  0
  9 10  2  0  0  0  0
  9 11  1  0  0  0  0
 11 12  2  3  0  0  0
 12 13  1  0  0  0  0
 13 14  2  0  0  0  0
 13 17  1  0  0  0  0
 14 15  1  0  0  0  0
 14 39  1  0  0  0  0
 15 16  1  0  0  0  0
 15 31  1  0  0  0  0
 16 17  2  0  0  0  0
 16 21  1  0  0  0  0
 17 18  1  0  0  0  0
 18 19  2  0  0  0  0
 18 48  1  0  0  0  0
 19 20  1  0  0  0  0
 19 22  1  0  0  0  0
 20 21  2  0  0  0  0
 20 49  1  0  0  0  0
 21 50  1  0  0  0  0
 22 23  2  0  0  0  0
 22 24  2  0  0  0  0
 22 25  1  0  0  0  0
 25 26  1  0  0  0  0
 25 30  1  0  0  0  0
 26 27  1  0  0  0  0
 26 51  1  0  0  0  0
 26 52  1  0  0  0  0
 27 28  1  0  0  0  0
 27 53  1  0  0  0  0
 27 54  1  0  0  0  0
 28 29  1  0  0  0  0
 29 30  1  0  0  0  0
 29 55  1  0  0  0  0
 29 56  1  0  0  0  0
 30 57  1  0  0  0  0
 30 58  1  0  0  0  0
 31 32  1  0  0  0  0
 31 59  1  0  0  0  0
 31 60  1  0  0  0  0
 32 33  2  0  0  0  0
 32 37  1  0  0  0  0
 33 34  1  0  0  0  0
 33 61  1  0  0  0  0
 34 35  2  0  0  0  0
 34 62  1  0  0  0  0
 35 36  1  0  0  0  0
 35 38  1  0  0  0  0
 36 37  2  0  0  0  0
 36 63  1  0  0  0  0
 37 64  1  0  0  0  0
 39 65  1  0  0  0  0
M  END
