
 OpenBabel10072620083D

 53 56  0  0  0  0  0  0  0  0999 V2000
    2.0012   -0.6147   -0.7020 C   0  0  0  0  0  0  0  0  0  0  0  0
    2.9228   -0.5804    0.3761 O   0  0  0  0  0  0  0  0  0  0  0  0
    3.4035    0.6309    0.8001 C   0  0  0  0  0  0  0  0  0  0  0  0
    3.0720    1.9195    0.3488 C   0  0  0  0  0  0  0  0  0  0  0  0
    3.6880    3.0321    0.9494 C   0  0  0  0  0  0  0  0  0  0  0  0
    4.6469    2.8808    1.9645 C   0  0  0  0  0  0  0  0  0  0  0  0
    4.9718    1.5961    2.3987 C   0  0  0  0  0  0  0  0  0  0  0  0
    4.3541    0.4880    1.8210 C   0  0  0  0  0  0  0  0  0  0  0  0
    5.3040    4.0857    2.5895 C   0  0  0  0  0  0  0  0  0  0  0  0
    4.4315    4.7427    3.6625 C   0  0  0  0  0  0  0  0  0  0  0  0
    5.1493    5.8964    4.2264 N   0  0  0  0  0  0  0  0  0  0  0  0
    4.5086    6.6301    5.5985 S   0  0  0  0  0  0  0  0  0  0  0  0
    5.1166    7.9402    5.6728 O   0  0  0  0  0  0  0  0  0  0  0  0
    3.0749    6.4528    5.5691 O   0  0  0  0  0  0  0  0  0  0  0  0
    5.1908    5.6547    6.9172 C   0  0  0  0  0  0  0  0  0  0  0  0
    4.3180    4.9779    7.8004 C   0  0  0  0  0  0  0  0  0  0  0  0
    4.8476    4.2357    8.8548 C   0  0  0  0  0  0  0  0  0  0  0  0
    6.2204    4.2216    8.9776 C   0  0  0  0  0  0  0  0  0  0  0  0
    7.0942    4.9055    8.1464 C   0  0  0  0  0  0  0  0  0  0  0  0
    6.5883    5.6311    7.0850 C   0  0  0  0  0  0  0  0  0  0  0  0
    8.5072    4.7017    8.6039 C   0  0  0  0  0  0  0  0  0  0  0  0
    8.3187    3.8936    9.9124 C   0  0  0  0  0  0  0  0  0  0  0  0
    6.8978    3.5568    9.9842 N   0  0  0  0  0  0  0  0  0  0  0  0
    6.2801    2.7540   10.9063 C   0  0  0  0  0  0  0  0  0  0  0  0
    6.8745    2.2283   11.8469 O   0  0  0  0  0  0  0  0  0  0  0  0
    4.8204    2.4308   10.5982 C   0  0  0  0  0  0  0  0  0  0  0  0
    4.0451    3.5749    9.9334 C   0  0  0  0  0  0  0  0  0  0  0  0
    2.1175    2.0561   -0.6242 O   0  0  0  0  0  0  0  0  0  0  0  0
    2.1699    3.2287   -1.4294 C   0  0  0  0  0  0  0  0  0  0  0  0
    1.7865   -1.6662   -0.9183 H   0  0  0  0  0  0  0  0  0  0  0  0
    2.4323   -0.1821   -1.6104 H   0  0  0  0  0  0  0  0  0  0  0  0
    1.0528   -0.1423   -0.4279 H   0  0  0  0  0  0  0  0  0  0  0  0
    3.4176    4.0396    0.6469 H   0  0  0  0  0  0  0  0  0  0  0  0
    5.7014    1.4400    3.1898 H   0  0  0  0  0  0  0  0  0  0  0  0
    4.6141   -0.5097    2.1690 H   0  0  0  0  0  0  0  0  0  0  0  0
    5.5439    4.8109    1.8004 H   0  0  0  0  0  0  0  0  0  0  0  0
    6.2714    3.7983    3.0226 H   0  0  0  0  0  0  0  0  0  0  0  0
    4.1998    4.0203    4.4533 H   0  0  0  0  0  0  0  0  0  0  0  0
    3.4916    5.0888    3.2175 H   0  0  0  0  0  0  0  0  0  0  0  0
    5.5209    6.5926    3.5799 H   0  0  0  0  0  0  0  0  0  0  0  0
    3.2405    5.0551    7.6747 H   0  0  0  0  0  0  0  0  0  0  0  0
    7.2434    6.1795    6.4154 H   0  0  0  0  0  0  0  0  0  0  0  0
    9.0156    5.6510    8.7975 H   0  0  0  0  0  0  0  0  0  0  0  0
    9.0703    4.1210    7.8664 H   0  0  0  0  0  0  0  0  0  0  0  0
    8.5788    4.4874   10.7966 H   0  0  0  0  0  0  0  0  0  0  0  0
    8.9168    2.9762    9.9252 H   0  0  0  0  0  0  0  0  0  0  0  0
    4.3179    2.1468   11.5294 H   0  0  0  0  0  0  0  0  0  0  0  0
    4.8238    1.5532    9.9389 H   0  0  0  0  0  0  0  0  0  0  0  0
    3.7977    4.3333   10.6870 H   0  0  0  0  0  0  0  0  0  0  0  0
    3.1048    3.1876    9.5254 H   0  0  0  0  0  0  0  0  0  0  0  0
    1.5487    3.0523   -2.3136 H   0  0  0  0  0  0  0  0  0  0  0  0
    3.1876    3.4395   -1.7756 H   0  0  0  0  0  0  0  0  0  0  0  0
    1.7490    4.0854   -0.8940 H   0  0  0  0  0  0  0  0  0  0  0  0
  1  2  1  0  0  0  0
  1 30  1  0  0  0  0
  1 31  1  0  0  0  0
  1 32  1  0  0  0  0
  2  3  1  0  0  0  0
  3  4  2  0  0  0  0
  3  8  1  0  0  0  0
  4  5  1  0  0  0  0
  4 28  1  0  0  0  0
  5  6  2  0  0  0  0
  5 33  1  0  0  0  0
  6  7  1  0  0  0  0
  6  9  1  0  0  0  0
  7  8  2  0  0  0  0
  7 34  1  0  0  0  0
  8 35  1  0  0  0  0
  9 10  1  0  0  0  0
  9 36  1  0  0  0  0
  9 37  1  0  0  0  0
 10 11  1  0  0  0  0
 10 38  1  0  0  0  0
 10 39  1  0  0  0  0
 11 12  1  0  0  0  0
 11 40  1  0  0  0  0
 12 13  2  0  0  0  0
 12 14  2  0  0  0  0
 12 15  1  0  0  0  0
 15 16  2  0  0  0  0
 15 20  1  0  0  0  0
 16 17  1  0  0  0  0
 16 41  1  0  0  0  0
 17 18  2  0  0  0  0
 17 27  1  0  0  0  0
 18 19  1  0  0  0  0
 18 23  1  0  0  0  0
 19 20  2  0  0  0  0
 19 21  1  0  0  0  0
 20 42  1  0  0  0  0
 21 22  1  0  0  0  0
 21 43  1  0  0  0  0
 21 44  1  0  0  0  0
 22 23  1  0  0  0  0
 22 45  1  0  0  0  0
 22 46  1  0  0  0  0
 23 24  1  0  0  0  0
 24 25  2  0  0  0  0
 24 26  1  0  0  0  0
 26 27  1  0  0  0  0
 26 47  1  0  0  0  0
 26 48  1  0  0  0  0
 27 49  1  0  0  0  0
 27 50  1  0  0  0  0
 28 29  1  0  0  0  0
 29 51  1  0  0  0  0
 29 52  1  0  0  0  0
 29 53  1  0  0  0  0
M  END
