
 OpenBabel10072620023D

 85 87  0  0  1  0  0  0  0  0999 V2000
    2.1355    2.1688   -1.3491 C   0  0  0  0  0  0  0  0  0  0  0  0
    1.5825    2.1344    0.0746 C   0  0  0  0  0  0  0  0  0  0  0  0
    0.6359    3.3146    0.3046 C   0  0  0  0  0  0  0  0  0  0  0  0
    0.8477    0.8230    0.4010 C   0  0  0  0  0  0  0  0  0  0  0  0
    1.7521   -0.3669    0.2945 N   0  0  0  0  0  0  0  0  0  0  0  0
    2.2293   -0.8475    1.6397 C   0  0  0  0  0  0  0  0  0  0  0  0
    3.2977    0.0637    2.2632 C   0  0  2  0  0  0  0  0  0  0  0  0
    4.5494    0.1668    1.3750 C   0  0  0  0  0  0  0  0  0  0  0  0
    5.3993    1.4116    1.6609 C   0  0  0  0  0  0  0  0  0  0  0  0
    6.0053    1.4271    3.0183 N   0  0  0  0  0  0  0  0  0  0  0  0
    6.8393    0.2425    3.3807 C   0  0  0  0  0  0  0  0  0  0  0  0
    7.9928   -0.0200    2.4132 C   0  0  0  0  0  0  0  0  0  0  0  0
    8.6377   -1.3857    2.6482 C   0  0  0  0  0  0  0  0  0  0  0  0
    9.9526   -1.2896    1.8865 C   0  0  0  0  0  0  0  0  0  0  0  0
   10.3580    0.1832    1.9580 C   0  0  0  0  0  0  0  0  0  0  0  0
    9.1780    0.9260    2.5808 C   0  0  0  0  0  0  0  0  0  0  0  0
    6.4973    2.9355    3.6247 S   0  0  0  0  0  0  0  0  0  0  0  0
    7.1345    2.7340    4.9084 O   0  0  0  0  0  0  0  0  0  0  0  0
    7.1768    3.6342    2.5540 O   0  0  0  0  0  0  0  0  0  0  0  0
    4.9324    3.7585    3.9200 C   0  0  3  0  0  0  0  0  0  0  0  0
    5.1323    5.1901    4.4228 C   0  0  0  0  0  0  0  0  0  0  0  0
    3.7829    5.8255    4.7460 C   0  0  0  0  0  0  0  0  0  0  0  0
    2.9526    4.9354    5.6741 C   0  0  3  0  0  0  0  0  0  0  0  0
    2.8260    3.6277    5.1085 O   0  0  0  0  0  0  0  0  0  0  0  0
    4.0964    2.9893    4.9284 C   0  0  0  0  0  0  0  0  0  0  0  0
    1.6719    5.5496    5.8079 O   0  0  0  0  0  0  0  0  0  0  0  0
    0.8523    4.8847    6.7587 C   0  0  0  0  0  0  0  0  0  0  0  0
    3.6569   -0.4733    3.5410 O   0  0  0  0  0  0  0  0  0  0  0  0
    1.0906   -1.6852   -0.6008 S   0  0  0  0  0  0  0  0  0  0  0  0
    2.0952   -2.7281   -0.6561 O   0  0  0  0  0  0  0  0  0  0  0  0
   -0.2252   -1.9436   -0.0557 O   0  0  0  0  0  0  0  0  0  0  0  0
    0.9047   -1.0564   -2.2508 C   0  0  0  0  0  0  0  0  0  0  0  0
    1.9850   -1.1242   -3.1362 C   0  0  0  0  0  0  0  0  0  0  0  0
    1.8027   -0.7791   -4.4797 C   0  0  0  0  0  0  0  0  0  0  0  0
    0.5441   -0.3793   -4.9361 C   0  0  0  0  0  0  0  0  0  0  0  0
   -0.5187   -0.2705   -4.0341 C   0  0  0  0  0  0  0  0  0  0  0  0
   -0.3485   -0.6263   -2.6946 C   0  0  0  0  0  0  0  0  0  0  0  0
    0.2490   -0.0567   -6.2331 O   0  0  0  0  0  0  0  0  0  0  0  0
    1.0264   -0.7300   -7.2202 C   0  0  0  0  0  0  0  0  0  0  0  0
    2.6396    3.1207   -1.5453 H   0  0  0  0  0  0  0  0  0  0  0  0
    1.3435    2.0462   -2.0934 H   0  0  0  0  0  0  0  0  0  0  0  0
    2.8765    1.3798   -1.5036 H   0  0  0  0  0  0  0  0  0  0  0  0
    2.4280    2.2650    0.7523 H   0  0  0  0  0  0  0  0  0  0  0  0
   -0.2350    3.2582   -0.3548 H   0  0  0  0  0  0  0  0  0  0  0  0
    1.1379    4.2690    0.1191 H   0  0  0  0  0  0  0  0  0  0  0  0
    0.2752    3.3259    1.3385 H   0  0  0  0  0  0  0  0  0  0  0  0
   -0.0071    0.7289   -0.2715 H   0  0  0  0  0  0  0  0  0  0  0  0
    0.4231    0.8782    1.4105 H   0  0  0  0  0  0  0  0  0  0  0  0
    2.6603   -1.8528    1.5678 H   0  0  0  0  0  0  0  0  0  0  0  0
    1.3774   -0.9413    2.3245 H   0  0  0  0  0  0  0  0  0  0  0  0
    2.8790    1.0553    2.4507 H   0  0  0  0  0  0  0  0  0  0  0  0
    5.1549   -0.7439    1.4567 H   0  0  0  0  0  0  0  0  0  0  0  0
    4.2478    0.2410    0.3239 H   0  0  0  0  0  0  0  0  0  0  0  0
    4.7585    2.2890    1.5278 H   0  0  0  0  0  0  0  0  0  0  0  0
    6.1857    1.5024    0.9032 H   0  0  0  0  0  0  0  0  0  0  0  0
    6.1874   -0.6374    3.4175 H   0  0  0  0  0  0  0  0  0  0  0  0
    7.2099    0.3398    4.4082 H   0  0  0  0  0  0  0  0  0  0  0  0
    7.6551    0.0131    1.3701 H   0  0  0  0  0  0  0  0  0  0  0  0
    8.0099   -2.2075    2.2871 H   0  0  0  0  0  0  0  0  0  0  0  0
    8.8334   -1.5450    3.7161 H   0  0  0  0  0  0  0  0  0  0  0  0
    9.8056   -1.5812    0.8385 H   0  0  0  0  0  0  0  0  0  0  0  0
   10.7149   -1.9477    2.3154 H   0  0  0  0  0  0  0  0  0  0  0  0
   10.5682    0.5684    0.9529 H   0  0  0  0  0  0  0  0  0  0  0  0
   11.2587    0.3204    2.5650 H   0  0  0  0  0  0  0  0  0  0  0  0
    9.0175    1.8883    2.0883 H   0  0  0  0  0  0  0  0  0  0  0  0
    9.3767    1.1181    3.6429 H   0  0  0  0  0  0  0  0  0  0  0  0
    4.4076    3.8198    2.9601 H   0  0  0  0  0  0  0  0  0  0  0  0
    5.6602    5.7928    3.6754 H   0  0  0  0  0  0  0  0  0  0  0  0
    5.7543    5.1911    5.3262 H   0  0  0  0  0  0  0  0  0  0  0  0
    3.2308    5.9893    3.8105 H   0  0  0  0  0  0  0  0  0  0  0  0
    3.9200    6.8148    5.1973 H   0  0  0  0  0  0  0  0  0  0  0  0
    3.4311    4.8695    6.6608 H   0  0  0  0  0  0  0  0  0  0  0  0
    3.8955    1.9757    4.5758 H   0  0  0  0  0  0  0  0  0  0  0  0
    4.5984    2.8949    5.8993 H   0  0  0  0  0  0  0  0  0  0  0  0
   -0.1134    5.3976    6.7981 H   0  0  0  0  0  0  0  0  0  0  0  0
    1.3062    4.9238    7.7539 H   0  0  0  0  0  0  0  0  0  0  0  0
    0.6771    3.8462    6.4634 H   0  0  0  0  0  0  0  0  0  0  0  0
    2.8896   -0.3730    4.1318 H   0  0  0  0  0  0  0  0  0  0  0  0
    2.9584   -1.4734   -2.7969 H   0  0  0  0  0  0  0  0  0  0  0  0
    2.6511   -0.8452   -5.1542 H   0  0  0  0  0  0  0  0  0  0  0  0
   -1.4967    0.0487   -4.3881 H   0  0  0  0  0  0  0  0  0  0  0  0
   -1.2001   -0.5957   -2.0186 H   0  0  0  0  0  0  0  0  0  0  0  0
    0.5198   -0.6122   -8.1828 H   0  0  0  0  0  0  0  0  0  0  0  0
    1.0998   -1.8040   -7.0158 H   0  0  0  0  0  0  0  0  0  0  0  0
    2.0209   -0.2816   -7.3079 H   0  0  0  0  0  0  0  0  0  0  0  0
  1  2  1  0  0  0  0
  1 40  1  0  0  0  0
  1 41  1  0  0  0  0
  1 42  1  0  0  0  0
  2  3  1  0  0  0  0
  2  4  1  0  0  0  0
  2 43  1  0  0  0  0
  3 44  1  0  0  0  0
  3 45  1  0  0  0  0
  3 46  1  0  0  0  0
  4  5  1  0  0  0  0
  4 47  1  0  0  0  0
  4 48  1  0  0  0  0
  5  6  1  0  0  0  0
  5 29  1  0  0  0  0
  6 49  1  0  0  0  0
  6 50  1  0  0  0  0
  7 28  1  0  0  0  0
  7  8  1  0  0  0  0
  7  6  1  0  0  0  0
  7 51  1  1  0  0  0
  8  9  1  0  0  0  0
  8 52  1  0  0  0  0
  8 53  1  0  0  0  0
  9 10  1  0  0  0  0
  9 54  1  0  0  0  0
  9 55  1  0  0  0  0
 10 11  1  0  0  0  0
 10 17  1  0  0  0  0
 11 12  1  0  0  0  0
 11 56  1  0  0  0  0
 11 57  1  0  0  0  0
 12 13  1  0  0  0  0
 12 16  1  0  0  0  0
 12 58  1  0  0  0  0
 13 14  1  0  0  0  0
 13 59  1  0  0  0  0
 13 60  1  0  0  0  0
 14 15  1  0  0  0  0
 14 61  1  0  0  0  0
 14 62  1  0  0  0  0
 15 16  1  0  0  0  0
 15 63  1  0  0  0  0
 15 64  1  0  0  0  0
 16 65  1  0  0  0  0
 16 66  1  0  0  0  0
 17 18  2  0  0  0  0
 17 19  2  0  0  0  0
 17 20  1  0  0  0  0
 20 21  1  0  0  0  0
 20 25  1  0  0  0  0
 20 67  1  0  0  0  0
 21 22  1  0  0  0  0
 21 68  1  0  0  0  0
 21 69  1  0  0  0  0
 22 23  1  0  0  0  0
 22 70  1  0  0  0  0
 22 71  1  0  0  0  0
 23 24  1  0  0  0  0
 23 26  1  0  0  0  0
 23 72  1  0  0  0  0
 24 25  1  0  0  0  0
 25 73  1  0  0  0  0
 25 74  1  0  0  0  0
 26 27  1  0  0  0  0
 27 75  1  0  0  0  0
 27 76  1  0  0  0  0
 27 77  1  0  0  0  0
 28 78  1  0  0  0  0
 29 30  2  0  0  0  0
 29 31  2  0  0  0  0
 29 32  1  0  0  0  0
 32 33  2  0  0  0  0
 32 37  1  0  0  0  0
 33 34  1  0  0  0  0
 33 79  1  0  0  0  0
 34 35  2  0  0  0  0
 34 80  1  0  0  0  0
 35 36  1  0  0  0  0
 35 38  1  0  0  0  0
 36 37  2  0  0  0  0
 36 81  1  0  0  0  0
 37 82  1  0  0  0  0
 38 39  1  0  0  0  0
 39 83  1  0  0  0  0
 39 84  1  0  0  0  0
 39 85  1  0  0  0  0
M  END
