
 OpenBabel10072619293D

130129  0  0  0  0  0  0  0  0999 V2000
    3.9466    1.9459    1.3147 C   0  0  0  0  0  0  0  0  0  0  0  0
    3.0680    0.9153    2.0038 C   0  0  0  0  0  0  0  0  0  0  0  0
    2.9115    1.1169    3.5034 N   0  0  0  0  0  0  0  0  0  0  0  0
    2.4881    2.5243    3.8053 C   0  0  0  0  0  0  0  0  0  0  0  0
    1.0715    2.8571    3.3584 C   0  0  0  0  0  0  0  0  0  0  0  0
    0.8487    2.9671    1.9659 O   0  0  0  0  0  0  0  0  0  0  0  0
   -0.6874    3.1335    1.4553 P   0  0  0  0  0  0  0  0  0  0  0  0
   -1.5198    1.9371    2.1717 O   0  0  0  0  0  0  0  0  0  0  0  0
   -2.9024    1.9695    1.7788 C   0  0  0  0  0  0  0  0  0  0  0  0
   -3.7687    0.8981    2.4314 C   0  0  0  0  0  0  0  0  0  0  0  0
   -3.8394    1.0360    3.9099 N   0  0  0  0  0  0  0  0  0  0  0  0
   -4.1428    2.4066    4.3486 C   0  0  0  0  0  0  0  0  0  0  0  0
   -5.6039    2.7460    4.0021 C   0  0  0  0  0  0  0  0  0  0  0  0
   -4.5513   -0.3083    4.6503 S   0  0  0  0  0  0  0  0  0  0  0  0
   -5.8773   -0.4806    4.0827 O   0  0  0  0  0  0  0  0  0  0  0  0
   -3.5771   -1.3716    4.4934 O   0  0  0  0  0  0  0  0  0  0  0  0
   -4.7694   -0.0109    6.3992 C   0  0  0  0  0  0  0  0  0  0  0  0
   -5.6550    1.2278    6.8549 C   0  0  0  0  0  0  0  0  0  0  0  0
   -7.1006    1.0209    6.9233 C   0  0  0  0  0  0  0  0  0  0  0  0
   -7.6312   -0.1636    7.6967 C   0  0  0  0  0  0  0  0  0  0  0  0
   -7.5188   -0.4297    9.2285 C   0  0  0  0  0  0  0  0  0  0  0  0
   -7.9104    0.6904   10.1736 C   0  0  0  0  0  0  0  0  0  0  0  0
   -7.8779    0.3344   11.6697 C   0  0  0  0  0  0  0  0  0  0  0  0
   -6.5538   -0.0186   12.3752 C   0  0  0  0  0  0  0  0  0  0  0  0
   -5.4650   -0.1533   11.6170 F   0  0  0  0  0  0  0  0  0  0  0  0
   -6.2435    0.9023   13.3273 F   0  0  0  0  0  0  0  0  0  0  0  0
   -6.6422   -1.2092   13.0229 F   0  0  0  0  0  0  0  0  0  0  0  0
   -8.4250    1.4097   12.3456 F   0  0  0  0  0  0  0  0  0  0  0  0
   -8.7702   -0.6811   11.9033 F   0  0  0  0  0  0  0  0  0  0  0  0
   -7.1628    1.7969    9.9310 F   0  0  0  0  0  0  0  0  0  0  0  0
   -9.1916    1.0565    9.8509 F   0  0  0  0  0  0  0  0  0  0  0  0
   -8.3500   -1.4944    9.4714 F   0  0  0  0  0  0  0  0  0  0  0  0
   -6.3153   -0.9143    9.6100 F   0  0  0  0  0  0  0  0  0  0  0  0
   -8.9748   -0.1270    7.4214 F   0  0  0  0  0  0  0  0  0  0  0  0
   -7.1805   -1.2778    7.0400 F   0  0  0  0  0  0  0  0  0  0  0  0
   -7.6167    2.1681    7.4533 F   0  0  0  0  0  0  0  0  0  0  0  0
   -7.5335    0.9866    5.6370 F   0  0  0  0  0  0  0  0  0  0  0  0
   -5.4224    1.7888    8.1124 F   0  0  0  0  0  0  0  0  0  0  0  0
   -5.3202    2.3376    6.2469 F   0  0  0  0  0  0  0  0  0  0  0  0
   -5.0656   -1.2056    7.0101 F   0  0  0  0  0  0  0  0  0  0  0  0
   -3.5700    0.2348    6.9634 F   0  0  0  0  0  0  0  0  0  0  0  0
   -1.1634    4.3245    2.4509 O   0  0  0  0  0  0  0  0  0  0  0  0
   -0.4368    5.5469    2.3741 C   0  0  0  0  0  0  0  0  0  0  0  0
   -0.4189    6.1300    0.9629 C   0  0  0  0  0  0  0  0  0  0  0  0
   -1.7820    6.4961    0.4476 N   0  0  0  0  0  0  0  0  0  0  0  0
   -2.4567    7.5190    1.3232 C   0  0  0  0  0  0  0  0  0  0  0  0
   -1.6621    8.8164    1.4214 C   0  0  0  0  0  0  0  0  0  0  0  0
   -1.7796    6.9239   -1.2362 S   0  0  0  0  0  0  0  0  0  0  0  0
   -3.1679    7.2584   -1.5585 O   0  0  0  0  0  0  0  0  0  0  0  0
   -0.7523    7.9145   -1.3631 O   0  0  0  0  0  0  0  0  0  0  0  0
   -1.2933    5.4086   -2.1678 C   0  0  0  0  0  0  0  0  0  0  0  0
   -1.1962    5.6660   -3.6652 C   0  0  0  0  0  0  0  0  0  0  0  0
   -0.2172    6.7087   -4.1993 C   0  0  0  0  0  0  0  0  0  0  0  0
    1.2676    6.5491   -3.8833 C   0  0  0  0  0  0  0  0  0  0  0  0
    1.9969    5.3128   -4.4045 C   0  0  0  0  0  0  0  0  0  0  0  0
    2.0189    5.0280   -5.9045 C   0  0  0  0  0  0  0  0  0  0  0  0
    2.6822    6.0854   -6.7568 C   0  0  0  0  0  0  0  0  0  0  0  0
    2.6945    5.6851   -8.2320 C   0  0  0  0  0  0  0  0  0  0  0  0
    2.1224    4.4881   -8.4832 F   0  0  0  0  0  0  0  0  0  0  0  0
    2.0335    6.5986   -8.9902 F   0  0  0  0  0  0  0  0  0  0  0  0
    3.9564    5.6311   -8.7277 F   0  0  0  0  0  0  0  0  0  0  0  0
    2.0245    7.2693   -6.6092 F   0  0  0  0  0  0  0  0  0  0  0  0
    3.9499    6.3175   -6.3129 F   0  0  0  0  0  0  0  0  0  0  0  0
    2.6788    3.8412   -6.0917 F   0  0  0  0  0  0  0  0  0  0  0  0
    0.7482    4.8046   -6.3332 F   0  0  0  0  0  0  0  0  0  0  0  0
    3.2933    5.3709   -3.9596 F   0  0  0  0  0  0  0  0  0  0  0  0
    1.4686    4.2233   -3.7627 F   0  0  0  0  0  0  0  0  0  0  0  0
    1.9345    7.6533   -4.3342 F   0  0  0  0  0  0  0  0  0  0  0  0
    1.4182    6.5914   -2.5229 F   0  0  0  0  0  0  0  0  0  0  0  0
   -0.3391    6.7580   -5.5642 F   0  0  0  0  0  0  0  0  0  0  0  0
   -0.6317    7.9416   -3.7945 F   0  0  0  0  0  0  0  0  0  0  0  0
   -0.8740    4.4762   -4.2752 F   0  0  0  0  0  0  0  0  0  0  0  0
   -2.4423    5.9616   -4.1495 F   0  0  0  0  0  0  0  0  0  0  0  0
   -0.1002    4.9023   -1.7324 F   0  0  0  0  0  0  0  0  0  0  0  0
   -2.2009    4.4015   -1.9459 F   0  0  0  0  0  0  0  0  0  0  0  0
    2.0009   -0.2196    4.1426 S   0  0  0  0  0  0  0  0  0  0  0  0
    0.6787   -0.1433    3.5640 O   0  0  0  0  0  0  0  0  0  0  0  0
    2.8035   -1.3876    3.7978 O   0  0  0  0  0  0  0  0  0  0  0  0
    1.8788   -0.2062    5.9918 C   0  0  0  0  0  0  0  0  0  0  0  0
    1.1772    0.9538    6.6655 C   0  0  0  0  0  0  0  0  0  0  0  0
   -0.2323    1.2770    6.2974 C   0  0  0  0  0  0  0  0  0  0  0  0
   -1.2239    0.1926    6.4238 C   0  0  0  0  0  0  0  0  0  0  0  0
   -1.5303   -0.2756    7.8518 C   0  0  0  0  0  0  0  0  0  0  0  0
   -1.8783    0.7751    8.9371 C   0  0  0  0  0  0  0  0  0  0  0  0
   -3.1674    1.5147    8.8433 C   0  0  0  0  0  0  0  0  0  0  0  0
   -4.1941    0.5072    9.3071 C   0  0  0  0  0  0  0  0  0  0  0  0
   -3.7637   -0.6834    9.6691 F   0  0  0  0  0  0  0  0  0  0  0  0
   -4.9718    1.1213   10.2191 F   0  0  0  0  0  0  0  0  0  0  0  0
   -5.1014    0.1095    8.4335 F   0  0  0  0  0  0  0  0  0  0  0  0
   -3.2592    2.5443    9.7384 F   0  0  0  0  0  0  0  0  0  0  0  0
   -3.3210    2.1396    7.6492 F   0  0  0  0  0  0  0  0  0  0  0  0
   -1.8549    0.1575   10.1610 F   0  0  0  0  0  0  0  0  0  0  0  0
   -0.8912    1.6987    9.0271 F   0  0  0  0  0  0  0  0  0  0  0  0
   -2.4649   -1.2754    7.7944 F   0  0  0  0  0  0  0  0  0  0  0  0
   -0.4119   -0.9234    8.2965 F   0  0  0  0  0  0  0  0  0  0  0  0
   -2.2757    0.7234    5.7565 F   0  0  0  0  0  0  0  0  0  0  0  0
   -0.8630   -0.8744    5.6673 F   0  0  0  0  0  0  0  0  0  0  0  0
   -0.6738    2.3742    6.9786 F   0  0  0  0  0  0  0  0  0  0  0  0
   -0.3211    1.6977    5.0388 F   0  0  0  0  0  0  0  0  0  0  0  0
    1.1602    0.7141    8.0188 F   0  0  0  0  0  0  0  0  0  0  0  0
    1.9122    2.0937    6.5692 F   0  0  0  0  0  0  0  0  0  0  0  0
    1.2448   -1.3585    6.3979 F   0  0  0  0  0  0  0  0  0  0  0  0
    3.1324   -0.3048    6.5419 F   0  0  0  0  0  0  0  0  0  0  0  0
    4.1076    1.6452    0.2743 H   0  0  0  0  0  0  0  0  0  0  0  0
    4.9191    2.0350    1.8052 H   0  0  0  0  0  0  0  0  0  0  0  0
    3.4808    2.9361    1.2826 H   0  0  0  0  0  0  0  0  0  0  0  0
    3.5198   -0.0642    1.8248 H   0  0  0  0  0  0  0  0  0  0  0  0
    2.0794    0.9142    1.5342 H   0  0  0  0  0  0  0  0  0  0  0  0
    3.1973    3.2442    3.3892 H   0  0  0  0  0  0  0  0  0  0  0  0
    2.5962    2.6770    4.8743 H   0  0  0  0  0  0  0  0  0  0  0  0
    0.7407    3.7423    3.9126 H   0  0  0  0  0  0  0  0  0  0  0  0
    0.4724    2.0259    3.5957 H   0  0  0  0  0  0  0  0  0  0  0  0
   -2.9699    1.8286    0.6982 H   0  0  0  0  0  0  0  0  0  0  0  0
   -3.3334    2.9568    1.9944 H   0  0  0  0  0  0  0  0  0  0  0  0
   -3.4011   -0.0951    2.1646 H   0  0  0  0  0  0  0  0  0  0  0  0
   -4.7887    0.9909    2.0356 H   0  0  0  0  0  0  0  0  0  0  0  0
   -3.4893    3.1572    3.9081 H   0  0  0  0  0  0  0  0  0  0  0  0
   -3.7709    2.5081    5.3773 H   0  0  0  0  0  0  0  0  0  0  0  0
   -6.0003    2.1127    3.2102 H   0  0  0  0  0  0  0  0  0  0  0  0
   -5.6998    3.7940    3.7361 H   0  0  0  0  0  0  0  0  0  0  0  0
   -6.3482    2.5938    4.7800 H   0  0  0  0  0  0  0  0  0  0  0  0
    0.5991    5.3959    2.6975 H   0  0  0  0  0  0  0  0  0  0  0  0
   -0.8633    6.2319    3.1127 H   0  0  0  0  0  0  0  0  0  0  0  0
    0.0115    5.3860    0.2979 H   0  0  0  0  0  0  0  0  0  0  0  0
    0.2611    6.9793    0.9428 H   0  0  0  0  0  0  0  0  0  0  0  0
   -2.6026    7.1021    2.3272 H   0  0  0  0  0  0  0  0  0  0  0  0
   -3.4741    7.7117    0.9657 H   0  0  0  0  0  0  0  0  0  0  0  0
   -0.6903    8.7796    0.9255 H   0  0  0  0  0  0  0  0  0  0  0  0
   -1.4711    9.0729    2.4676 H   0  0  0  0  0  0  0  0  0  0  0  0
   -2.2202    9.6383    0.9671 H   0  0  0  0  0  0  0  0  0  0  0  0
  1  2  1  0  0  0  0
  1104  1  0  0  0  0
  1105  1  0  0  0  0
  1106  1  0  0  0  0
  2  3  1  0  0  0  0
  2107  1  0  0  0  0
  2108  1  0  0  0  0
  3  4  1  0  0  0  0
  3 76  1  0  0  0  0
  4  5  1  0  0  0  0
  4109  1  0  0  0  0
  4110  1  0  0  0  0
  5  6  1  0  0  0  0
  5111  1  0  0  0  0
  5112  1  0  0  0  0
  6  7  1  0  0  0  0
  7  8  1  0  0  0  0
  7 42  1  0  0  0  0
  8  9  1  0  0  0  0
  9 10  1  0  0  0  0
  9113  1  0  0  0  0
  9114  1  0  0  0  0
 10 11  1  0  0  0  0
 10115  1  0  0  0  0
 10116  1  0  0  0  0
 11 12  1  0  0  0  0
 11 14  1  0  0  0  0
 12 13  1  0  0  0  0
 12117  1  0  0  0  0
 12118  1  0  0  0  0
 13119  1  0  0  0  0
 13120  1  0  0  0  0
 13121  1  0  0  0  0
 14 15  2  0  0  0  0
 14 16  2  0  0  0  0
 14 17  1  0  0  0  0
 17 18  1  0  0  0  0
 17 40  1  0  0  0  0
 17 41  1  0  0  0  0
 18 19  1  0  0  0  0
 18 38  1  0  0  0  0
 18 39  1  0  0  0  0
 19 20  1  0  0  0  0
 19 36  1  0  0  0  0
 19 37  1  0  0  0  0
 20 21  1  0  0  0  0
 20 34  1  0  0  0  0
 20 35  1  0  0  0  0
 21 22  1  0  0  0  0
 21 32  1  0  0  0  0
 21 33  1  0  0  0  0
 22 23  1  0  0  0  0
 22 30  1  0  0  0  0
 22 31  1  0  0  0  0
 23 24  1  0  0  0  0
 23 28  1  0  0  0  0
 23 29  1  0  0  0  0
 24 25  1  0  0  0  0
 24 26  1  0  0  0  0
 24 27  1  0  0  0  0
 42 43  1  0  0  0  0
 43 44  1  0  0  0  0
 43122  1  0  0  0  0
 43123  1  0  0  0  0
 44 45  1  0  0  0  0
 44124  1  0  0  0  0
 44125  1  0  0  0  0
 45 46  1  0  0  0  0
 45 48  1  0  0  0  0
 46 47  1  0  0  0  0
 46126  1  0  0  0  0
 46127  1  0  0  0  0
 47128  1  0  0  0  0
 47129  1  0  0  0  0
 47130  1  0  0  0  0
 48 49  2  0  0  0  0
 48 50  2  0  0  0  0
 48 51  1  0  0  0  0
 51 52  1  0  0  0  0
 51 74  1  0  0  0  0
 51 75  1  0  0  0  0
 52 53  1  0  0  0  0
 52 72  1  0  0  0  0
 52 73  1  0  0  0  0
 53 54  1  0  0  0  0
 53 70  1  0  0  0  0
 53 71  1  0  0  0  0
 54 55  1  0  0  0  0
 54 68  1  0  0  0  0
 54 69  1  0  0  0  0
 55 56  1  0  0  0  0
 55 66  1  0  0  0  0
 55 67  1  0  0  0  0
 56 57  1  0  0  0  0
 56 64  1  0  0  0  0
 56 65  1  0  0  0  0
 57 58  1  0  0  0  0
 57 62  1  0  0  0  0
 57 63  1  0  0  0  0
 58 59  1  0  0  0  0
 58 60  1  0  0  0  0
 58 61  1  0  0  0  0
 76 77  2  0  0  0  0
 76 78  2  0  0  0  0
 76 79  1  0  0  0  0
 79 80  1  0  0  0  0
 79102  1  0  0  0  0
 79103  1  0  0  0  0
 80 81  1  0  0  0  0
 80100  1  0  0  0  0
 80101  1  0  0  0  0
 81 82  1  0  0  0  0
 81 98  1  0  0  0  0
 81 99  1  0  0  0  0
 82 83  1  0  0  0  0
 82 96  1  0  0  0  0
 82 97  1  0  0  0  0
 83 84  1  0  0  0  0
 83 94  1  0  0  0  0
 83 95  1  0  0  0  0
 84 85  1  0  0  0  0
 84 92  1  0  0  0  0
 84 93  1  0  0  0  0
 85 86  1  0  0  0  0
 85 90  1  0  0  0  0
 85 91  1  0  0  0  0
 86 87  1  0  0  0  0
 86 88  1  0  0  0  0
 86 89  1  0  0  0  0
M  END
