
 OpenBabel10072620023D

 57 60  0  0  0  0  0  0  0  0999 V2000
    4.0694   -5.1626   -1.1350 C   0  0  0  0  0  0  0  0  0  0  0  0
    2.6328   -4.9090   -0.7850 C   0  0  0  0  0  0  0  0  0  0  0  0
    2.1694   -5.0769    0.5242 C   0  0  0  0  0  0  0  0  0  0  0  0
    0.8199   -4.8555    0.8553 C   0  0  0  0  0  0  0  0  0  0  0  0
   -0.0837   -4.4554   -0.1510 C   0  0  0  0  0  0  0  0  0  0  0  0
    0.3808   -4.3110   -1.4621 C   0  0  0  0  0  0  0  0  0  0  0  0
    1.7262   -4.5277   -1.7753 C   0  0  0  0  0  0  0  0  0  0  0  0
   -1.4485   -4.3070    0.1844 N   0  0  0  0  0  0  0  0  0  0  0  0
   -2.4657   -3.5650   -0.4017 C   0  0  0  0  0  0  0  0  0  0  0  0
   -2.2398   -2.2048   -1.3613 S   0  0  0  0  0  0  0  0  0  0  0  0
   -3.7374   -4.0433    0.0082 N   0  0  0  0  0  0  0  0  0  0  0  0
   -4.9351   -3.1717   -0.0618 C   0  0  0  0  0  0  0  0  0  0  0  0
   -6.0310   -3.4958    0.9639 C   0  0  0  0  0  0  0  0  0  0  0  0
   -7.1935   -2.5556    0.8542 C   0  0  0  0  0  0  0  0  0  0  0  0
   -7.4573   -1.4529    1.6511 C   0  0  0  0  0  0  0  0  0  0  0  0
   -8.6100   -0.8702    1.1865 N   0  0  0  0  0  0  0  0  0  0  0  0
   -9.1153   -1.5747    0.1197 C   0  0  0  0  0  0  0  0  0  0  0  0
   -8.2449   -2.6387   -0.1146 C   0  0  0  0  0  0  0  0  0  0  0  0
   -8.5308   -3.5238   -1.1736 C   0  0  0  0  0  0  0  0  0  0  0  0
   -9.6746   -3.3078   -1.9393 C   0  0  0  0  0  0  0  0  0  0  0  0
  -10.5323   -2.2450   -1.6863 C   0  0  0  0  0  0  0  0  0  0  0  0
  -10.2656   -1.3496   -0.6470 C   0  0  0  0  0  0  0  0  0  0  0  0
   -9.9562   -4.1502   -2.9435 F   0  0  0  0  0  0  0  0  0  0  0  0
   -6.7198   -0.8948    2.8144 C   0  0  0  0  0  0  0  0  0  0  0  0
   -3.9697   -5.5028    0.0302 C   0  0  0  0  0  0  0  0  0  0  0  0
   -4.6915   -5.9509   -1.1917 C   0  0  0  0  0  0  0  0  0  0  0  0
   -4.4630   -5.8094   -2.5462 C   0  0  0  0  0  0  0  0  0  0  0  0
   -5.5249   -6.4756   -3.2023 C   0  0  0  0  0  0  0  0  0  0  0  0
   -6.3282   -6.9888   -2.2110 C   0  0  0  0  0  0  0  0  0  0  0  0
   -5.8327   -6.6712   -0.9877 O   0  0  0  0  0  0  0  0  0  0  0  0
    0.3918   -5.0409    2.2872 C   0  0  0  0  0  0  0  0  0  0  0  0
    4.6729   -5.3444   -0.2393 H   0  0  0  0  0  0  0  0  0  0  0  0
    4.4958   -4.2963   -1.6520 H   0  0  0  0  0  0  0  0  0  0  0  0
    4.1488   -6.0429   -1.7813 H   0  0  0  0  0  0  0  0  0  0  0  0
    2.8701   -5.3811    1.2996 H   0  0  0  0  0  0  0  0  0  0  0  0
   -0.2929   -4.0668   -2.2773 H   0  0  0  0  0  0  0  0  0  0  0  0
    2.0558   -4.4055   -2.8048 H   0  0  0  0  0  0  0  0  0  0  0  0
   -1.7065   -4.6314    1.1057 H   0  0  0  0  0  0  0  0  0  0  0  0
   -5.3294   -3.2198   -1.0842 H   0  0  0  0  0  0  0  0  0  0  0  0
   -4.6205   -2.1352    0.1076 H   0  0  0  0  0  0  0  0  0  0  0  0
   -5.6080   -3.4551    1.9752 H   0  0  0  0  0  0  0  0  0  0  0  0
   -6.4046   -4.5171    0.8322 H   0  0  0  0  0  0  0  0  0  0  0  0
   -9.0376   -0.0396    1.5738 H   0  0  0  0  0  0  0  0  0  0  0  0
   -7.8833   -4.3644   -1.3970 H   0  0  0  0  0  0  0  0  0  0  0  0
  -11.4130   -2.1152   -2.3073 H   0  0  0  0  0  0  0  0  0  0  0  0
  -10.9288   -0.5149   -0.4455 H   0  0  0  0  0  0  0  0  0  0  0  0
   -5.6993   -0.6242    2.5267 H   0  0  0  0  0  0  0  0  0  0  0  0
   -6.6672   -1.6336    3.6207 H   0  0  0  0  0  0  0  0  0  0  0  0
   -7.2085    0.0014    3.2102 H   0  0  0  0  0  0  0  0  0  0  0  0
   -4.5275   -5.7491    0.9394 H   0  0  0  0  0  0  0  0  0  0  0  0
   -3.0289   -6.0589    0.0815 H   0  0  0  0  0  0  0  0  0  0  0  0
   -3.6338   -5.2816   -2.9993 H   0  0  0  0  0  0  0  0  0  0  0  0
   -5.6881   -6.5708   -4.2671 H   0  0  0  0  0  0  0  0  0  0  0  0
   -7.2406   -7.5678   -2.2094 H   0  0  0  0  0  0  0  0  0  0  0  0
    1.2444   -5.2426    2.9438 H   0  0  0  0  0  0  0  0  0  0  0  0
   -0.3002   -5.8855    2.3697 H   0  0  0  0  0  0  0  0  0  0  0  0
   -0.0932   -4.1315    2.6581 H   0  0  0  0  0  0  0  0  0  0  0  0
  1  2  1  0  0  0  0
  1 32  1  0  0  0  0
  1 33  1  0  0  0  0
  1 34  1  0  0  0  0
  2  3  2  0  0  0  0
  2  7  1  0  0  0  0
  3  4  1  0  0  0  0
  3 35  1  0  0  0  0
  4  5  2  0  0  0  0
  4 31  1  0  0  0  0
  5  6  1  0  0  0  0
  5  8  1  0  0  0  0
  6  7  2  0  0  0  0
  6 36  1  0  0  0  0
  7 37  1  0  0  0  0
  8  9  1  0  0  0  0
  8 38  1  0  0  0  0
  9 10  2  0  0  0  0
  9 11  1  0  0  0  0
 11 12  1  0  0  0  0
 11 25  1  0  0  0  0
 12 13  1  0  0  0  0
 12 39  1  0  0  0  0
 12 40  1  0  0  0  0
 13 14  1  0  0  0  0
 13 41  1  0  0  0  0
 13 42  1  0  0  0  0
 14 15  2  0  0  0  0
 14 18  1  0  0  0  0
 15 16  1  0  0  0  0
 15 24  1  0  0  0  0
 16 17  1  0  0  0  0
 16 43  1  0  0  0  0
 17 18  2  0  0  0  0
 17 22  1  0  0  0  0
 18 19  1  0  0  0  0
 19 20  2  0  0  0  0
 19 44  1  0  0  0  0
 20 21  1  0  0  0  0
 20 23  1  0  0  0  0
 21 22  2  0  0  0  0
 21 45  1  0  0  0  0
 22 46  1  0  0  0  0
 24 47  1  0  0  0  0
 24 48  1  0  0  0  0
 24 49  1  0  0  0  0
 25 26  1  0  0  0  0
 25 50  1  0  0  0  0
 25 51  1  0  0  0  0
 26 27  2  0  0  0  0
 26 30  1  0  0  0  0
 27 28  1  0  0  0  0
 27 52  1  0  0  0  0
 28 29  2  0  0  0  0
 28 53  1  0  0  0  0
 29 30  1  0  0  0  0
 29 54  1  0  0  0  0
 31 55  1  0  0  0  0
 31 56  1  0  0  0  0
 31 57  1  0  0  0  0
M  END
