
 OpenBabel10072620063D

 66 67  0  0  0  0  0  0  0  0999 V2000
    0.4034    0.6568   -1.0171 C   0  0  0  0  0  0  0  0  0  0  0  0
   -0.3196   -0.5165   -1.1993 C   0  0  0  0  0  0  0  0  0  0  0  0
   -0.7323   -1.2457   -0.1356 N   0  3  0  0  0  0  0  0  0  0  0  0
   -0.4571   -0.8422    1.1274 C   0  0  0  0  0  0  0  0  0  0  0  0
    0.2526    0.3304    1.3568 C   0  0  0  0  0  0  0  0  0  0  0  0
    0.7183    1.0798    0.2743 C   0  0  0  0  0  0  0  0  0  0  0  0
    1.5850    2.2994    0.4982 C   0  0  0  0  0  0  0  0  0  0  0  0
    2.9409    1.9122    1.0792 C   0  0  0  0  0  0  0  0  0  0  0  0
    3.9554    3.3566    1.2907 S   0  0  0  0  0  0  0  0  0  0  0  0
    4.2628    3.9079   -0.0076 O   0  0  0  0  0  0  0  0  0  0  0  0
    3.4113    4.1464    2.3696 O   0  0  0  0  0  0  0  0  0  0  0  0
    5.2892    2.6178    1.8179 O   0  0  0  0  0  0  0  0  0  0  0  0
   -1.4118   -2.5436   -0.3561 C   0  0  0  0  0  0  0  0  0  0  0  0
   -2.9162   -2.3615   -0.3923 C   0  0  0  0  0  0  0  0  0  0  0  0
   -3.6145   -3.9871   -0.5818 S   0  0  0  0  0  0  0  0  0  0  0  0
   -3.1343   -4.5023   -1.8468 O   0  0  0  0  0  0  0  0  0  0  0  0
   -3.3610   -4.6922    0.6562 O   0  0  0  0  0  0  0  0  0  0  0  0
   -5.3653   -3.7481   -0.7239 C   0  0  0  0  0  0  0  0  0  0  0  0
   -6.0590   -5.0945   -0.8527 C   0  0  0  0  0  0  0  0  0  0  0  0
   -7.8077   -4.8455   -1.0314 S   0  0  0  0  0  0  0  0  0  0  0  0
   -8.2919   -4.2125    0.1763 O   0  0  0  0  0  0  0  0  0  0  0  0
   -8.0470   -4.2634   -2.3349 O   0  0  0  0  0  0  0  0  0  0  0  0
   -8.5054   -6.4738   -1.0647 C   0  0  0  0  0  0  0  0  0  0  0  0
  -10.0084   -6.3295   -1.2217 C   0  0  0  0  0  0  0  0  0  0  0  0
  -10.6231   -7.6784   -1.2208 N   0  3  0  0  0  0  0  0  0  0  0  0
  -10.9943   -8.2512   -0.0515 C   0  0  0  0  0  0  0  0  0  0  0  0
  -11.4913   -9.5508   -0.0295 C   0  0  0  0  0  0  0  0  0  0  0  0
  -11.6411  -10.2591   -1.2231 C   0  0  0  0  0  0  0  0  0  0  0  0
  -11.2807   -9.6327   -2.4162 C   0  0  0  0  0  0  0  0  0  0  0  0
  -10.7852   -8.3346   -2.3931 C   0  0  0  0  0  0  0  0  0  0  0  0
  -12.1358  -11.6879   -1.2225 C   0  0  0  0  0  0  0  0  0  0  0  0
  -13.5618  -11.8447   -0.7020 C   0  0  0  0  0  0  0  0  0  0  0  0
  -13.9863  -13.5770   -0.6906 S   0  0  0  0  0  0  0  0  0  0  0  0
  -13.9889  -14.0690   -2.0476 O   0  0  0  0  0  0  0  0  0  0  0  0
  -13.2478  -14.2165    0.3711 O   0  0  0  0  0  0  0  0  0  0  0  0
  -15.5287  -13.4401   -0.2379 O   0  0  0  0  0  0  0  0  0  0  0  0
    0.7440    1.2228   -1.8845 H   0  0  0  0  0  0  0  0  0  0  0  0
   -0.5576   -0.8901   -2.1918 H   0  0  0  0  0  0  0  0  0  0  0  0
   -0.7951   -1.4712    1.9472 H   0  0  0  0  0  0  0  0  0  0  0  0
    0.4705    0.6351    2.3806 H   0  0  0  0  0  0  0  0  0  0  0  0
    1.0553    3.0026    1.1545 H   0  0  0  0  0  0  0  0  0  0  0  0
    1.7287    2.8311   -0.4514 H   0  0  0  0  0  0  0  0  0  0  0  0
    3.4724    1.2221    0.4161 H   0  0  0  0  0  0  0  0  0  0  0  0
    2.8377    1.4443    2.0636 H   0  0  0  0  0  0  0  0  0  0  0  0
    6.0685    3.0300    1.3814 H   0  0  0  0  0  0  0  0  0  0  0  0
   -1.0918   -3.2179    0.4461 H   0  0  0  0  0  0  0  0  0  0  0  0
   -1.0214   -2.9643   -1.2898 H   0  0  0  0  0  0  0  0  0  0  0  0
   -3.2325   -1.7476   -1.2404 H   0  0  0  0  0  0  0  0  0  0  0  0
   -3.2965   -1.9242    0.5362 H   0  0  0  0  0  0  0  0  0  0  0  0
   -5.5415   -3.1180   -1.6013 H   0  0  0  0  0  0  0  0  0  0  0  0
   -5.6999   -3.2139    0.1705 H   0  0  0  0  0  0  0  0  0  0  0  0
   -5.9019   -5.7138    0.0369 H   0  0  0  0  0  0  0  0  0  0  0  0
   -5.7107   -5.6480   -1.7307 H   0  0  0  0  0  0  0  0  0  0  0  0
   -8.2419   -6.9830   -0.1314 H   0  0  0  0  0  0  0  0  0  0  0  0
   -8.0669   -7.0175   -1.9075 H   0  0  0  0  0  0  0  0  0  0  0  0
  -10.2840   -5.8424   -2.1636 H   0  0  0  0  0  0  0  0  0  0  0  0
  -10.4675   -5.7489   -0.4147 H   0  0  0  0  0  0  0  0  0  0  0  0
  -10.8710   -7.6743    0.8620 H   0  0  0  0  0  0  0  0  0  0  0  0
  -11.7465  -10.0157    0.9220 H   0  0  0  0  0  0  0  0  0  0  0  0
  -11.3729  -10.1524   -3.3700 H   0  0  0  0  0  0  0  0  0  0  0  0
  -10.4924   -7.8195   -3.3038 H   0  0  0  0  0  0  0  0  0  0  0  0
  -11.4345  -12.2839   -0.6234 H   0  0  0  0  0  0  0  0  0  0  0  0
  -12.0796  -12.1022   -2.2384 H   0  0  0  0  0  0  0  0  0  0  0  0
  -14.2814  -11.3233   -1.3399 H   0  0  0  0  0  0  0  0  0  0  0  0
  -13.6668  -11.4737    0.3227 H   0  0  0  0  0  0  0  0  0  0  0  0
  -16.0643  -14.0700   -0.7710 H   0  0  0  0  0  0  0  0  0  0  0  0
  1  2  2  0  0  0  0
  1  6  1  0  0  0  0
  1 37  1  0  0  0  0
  2  3  1  0  0  0  0
  2 38  1  0  0  0  0
  3  4  2  0  0  0  0
  3 13  1  0  0  0  0
  4  5  1  0  0  0  0
  4 39  1  0  0  0  0
  5  6  2  0  0  0  0
  5 40  1  0  0  0  0
  6  7  1  0  0  0  0
  7  8  1  0  0  0  0
  7 41  1  0  0  0  0
  7 42  1  0  0  0  0
  8  9  1  0  0  0  0
  8 43  1  0  0  0  0
  8 44  1  0  0  0  0
  9 10  2  0  0  0  0
  9 11  2  0  0  0  0
  9 12  1  0  0  0  0
 12 45  1  0  0  0  0
 13 14  1  0  0  0  0
 13 46  1  0  0  0  0
 13 47  1  0  0  0  0
 14 15  1  0  0  0  0
 14 48  1  0  0  0  0
 14 49  1  0  0  0  0
 15 16  2  0  0  0  0
 15 17  2  0  0  0  0
 15 18  1  0  0  0  0
 18 19  1  0  0  0  0
 18 50  1  0  0  0  0
 18 51  1  0  0  0  0
 19 20  1  0  0  0  0
 19 52  1  0  0  0  0
 19 53  1  0  0  0  0
 20 21  2  0  0  0  0
 20 22  2  0  0  0  0
 20 23  1  0  0  0  0
 23 24  1  0  0  0  0
 23 54  1  0  0  0  0
 23 55  1  0  0  0  0
 24 25  1  0  0  0  0
 24 56  1  0  0  0  0
 24 57  1  0  0  0  0
 25 26  2  0  0  0  0
 25 30  1  0  0  0  0
 26 27  1  0  0  0  0
 26 58  1  0  0  0  0
 27 28  2  0  0  0  0
 27 59  1  0  0  0  0
 28 29  1  0  0  0  0
 28 31  1  0  0  0  0
 29 30  2  0  0  0  0
 29 60  1  0  0  0  0
 30 61  1  0  0  0  0
 31 32  1  0  0  0  0
 31 62  1  0  0  0  0
 31 63  1  0  0  0  0
 32 33  1  0  0  0  0
 32 64  1  0  0  0  0
 32 65  1  0  0  0  0
 33 34  2  0  0  0  0
 33 35  2  0  0  0  0
 33 36  1  0  0  0  0
 36 66  1  0  0  0  0
M  CHG  2   3   1  25   1
M  END
