
 OpenBabel10072620223D

 41 43  0  0  0  0  0  0  0  0999 V2000
    6.5933    1.6988   -3.7651 C   0  0  0  0  0  0  0  0  0  0  0  0
    5.6015    0.8913   -3.1421 O   0  0  0  0  0  0  0  0  0  0  0  0
    4.5084    1.5424   -2.6146 C   0  0  0  0  0  0  0  0  0  0  0  0
    4.3276    2.9292   -2.6076 C   0  0  0  0  0  0  0  0  0  0  0  0
    3.1726    3.4824   -2.0503 C   0  0  0  0  0  0  0  0  0  0  0  0
    2.1996    2.6552   -1.4951 C   0  0  0  0  0  0  0  0  0  0  0  0
    2.3758    1.2698   -1.4893 C   0  0  0  0  0  0  0  0  0  0  0  0
    3.5226    0.7036   -2.0495 C   0  0  0  0  0  0  0  0  0  0  0  0
    3.7796   -0.6863   -2.0744 N   0  0  0  0  0  0  0  0  0  0  0  0
    2.9386   -1.7245   -1.7137 C   0  0  0  0  0  0  0  0  0  0  0  0
    1.7658   -1.5860   -1.3911 O   0  0  0  0  0  0  0  0  0  0  0  0
    3.6156   -2.9256   -1.7584 N   0  0  0  0  0  0  0  0  0  0  0  0
    3.0976   -4.1687   -1.4945 C   0  0  0  0  0  0  0  0  0  0  0  0
    3.8620   -5.2306   -1.3601 N   0  0  0  0  0  0  0  0  0  0  0  0
    3.1300   -6.3723   -1.0968 N   0  0  0  0  0  0  0  0  0  0  0  0
    1.8338   -6.1318   -1.0731 C   0  0  0  0  0  0  0  0  0  0  0  0
    1.4299   -4.4855   -1.3583 S   0  0  0  0  0  0  0  0  0  0  0  0
    0.7707   -7.1475   -0.8066 C   0  0  0  0  0  0  0  0  0  0  0  0
    0.3587   -7.6582   -2.0749 O   0  0  0  0  0  0  0  0  0  0  0  0
   -0.6032   -8.6289   -2.0785 C   0  0  0  0  0  0  0  0  0  0  0  0
   -1.3607   -9.0428   -0.9813 C   0  0  0  0  0  0  0  0  0  0  0  0
   -2.3349  -10.0364   -1.1370 C   0  0  0  0  0  0  0  0  0  0  0  0
   -2.5477  -10.6165   -2.3863 C   0  0  0  0  0  0  0  0  0  0  0  0
   -1.7944  -10.2130   -3.4842 C   0  0  0  0  0  0  0  0  0  0  0  0
   -0.8264   -9.2185   -3.3272 C   0  0  0  0  0  0  0  0  0  0  0  0
   -3.7479  -11.8344   -2.5713 Cl  0  0  0  0  0  0  0  0  0  0  0  0
    7.3674    1.0318   -4.1560 H   0  0  0  0  0  0  0  0  0  0  0  0
    7.0656    2.3687   -3.0397 H   0  0  0  0  0  0  0  0  0  0  0  0
    6.1791    2.2570   -4.6111 H   0  0  0  0  0  0  0  0  0  0  0  0
    5.0631    3.6079   -3.0255 H   0  0  0  0  0  0  0  0  0  0  0  0
    3.0311    4.5608   -2.0509 H   0  0  0  0  0  0  0  0  0  0  0  0
    1.3000    3.0845   -1.0599 H   0  0  0  0  0  0  0  0  0  0  0  0
    1.6001    0.6593   -1.0384 H   0  0  0  0  0  0  0  0  0  0  0  0
    4.6569   -0.9186   -2.5232 H   0  0  0  0  0  0  0  0  0  0  0  0
    4.6211   -2.9115   -1.8159 H   0  0  0  0  0  0  0  0  0  0  0  0
   -0.0719   -6.6819   -0.2817 H   0  0  0  0  0  0  0  0  0  0  0  0
    1.1846   -7.9554   -0.1912 H   0  0  0  0  0  0  0  0  0  0  0  0
   -1.2319   -8.6117    0.0057 H   0  0  0  0  0  0  0  0  0  0  0  0
   -2.9265  -10.3500   -0.2806 H   0  0  0  0  0  0  0  0  0  0  0  0
   -1.9534  -10.6619   -4.4607 H   0  0  0  0  0  0  0  0  0  0  0  0
   -0.2387   -8.9007   -4.1858 H   0  0  0  0  0  0  0  0  0  0  0  0
  1  2  1  0  0  0  0
  1 27  1  0  0  0  0
  1 28  1  0  0  0  0
  1 29  1  0  0  0  0
  2  3  1  0  0  0  0
  3  4  2  0  0  0  0
  3  8  1  0  0  0  0
  4  5  1  0  0  0  0
  4 30  1  0  0  0  0
  5  6  2  0  0  0  0
  5 31  1  0  0  0  0
  6  7  1  0  0  0  0
  6 32  1  0  0  0  0
  7  8  2  0  0  0  0
  7 33  1  0  0  0  0
  8  9  1  0  0  0  0
  9 10  1  0  0  0  0
  9 34  1  0  0  0  0
 10 11  2  0  0  0  0
 10 12  1  0  0  0  0
 12 13  1  0  0  0  0
 12 35  1  0  0  0  0
 13 14  2  0  0  0  0
 13 17  1  0  0  0  0
 14 15  1  0  0  0  0
 15 16  2  0  0  0  0
 16 17  1  0  0  0  0
 16 18  1  0  0  0  0
 18 19  1  0  0  0  0
 18 36  1  0  0  0  0
 18 37  1  0  0  0  0
 19 20  1  0  0  0  0
 20 21  2  0  0  0  0
 20 25  1  0  0  0  0
 21 22  1  0  0  0  0
 21 38  1  0  0  0  0
 22 23  2  0  0  0  0
 22 39  1  0  0  0  0
 23 24  1  0  0  0  0
 23 26  1  0  0  0  0
 24 25  2  0  0  0  0
 24 40  1  0  0  0  0
 25 41  1  0  0  0  0
M  END
