
 OpenBabel10072619533D

 67 68  0  0  0  0  0  0  0  0999 V2000
    0.5422    2.4887    1.5145 C   0  0  0  0  0  0  0  0  0  0  0  0
    2.0447    2.7039    1.5539 C   0  0  0  0  0  0  0  0  0  0  0  0
    2.7289    1.6750    2.4503 C   0  0  0  0  0  0  0  0  0  0  0  0
    4.2380    1.9084    2.4938 C   0  0  0  0  0  0  0  0  0  0  0  0
    4.9235    0.8925    3.4008 C   0  0  0  0  0  0  0  0  0  0  0  0
    6.4354    1.0972    3.4391 C   0  0  0  0  0  0  0  0  0  0  0  0
    6.9725    0.0977    4.3048 O   0  0  0  0  0  0  0  0  0  0  0  0
    8.3274    0.0583    4.4969 C   0  0  0  0  0  0  0  0  0  0  0  0
    9.2426    0.9181    3.8861 C   0  0  0  0  0  0  0  0  0  0  0  0
   10.6211    0.7851    4.1284 C   0  0  0  0  0  0  0  0  0  0  0  0
   11.1099   -0.2150    4.9778 C   0  0  0  0  0  0  0  0  0  0  0  0
   10.1891   -1.0784    5.5763 C   0  0  0  0  0  0  0  0  0  0  0  0
    8.8014   -0.9391    5.3681 C   0  0  0  0  0  0  0  0  0  0  0  0
    7.8945   -1.9125    6.0123 C   0  0  0  0  0  0  0  0  0  0  0  0
    8.0080   -2.2348    7.3130 C   0  0  0  0  0  0  0  0  0  0  0  0
    7.2858   -3.3101    8.0117 C   0  0  0  0  0  0  0  0  0  0  0  0
    6.7195   -4.4056    7.3462 C   0  0  0  0  0  0  0  0  0  0  0  0
    6.1557   -5.4658    8.0660 C   0  0  0  0  0  0  0  0  0  0  0  0
    6.1521   -5.4457    9.4635 C   0  0  0  0  0  0  0  0  0  0  0  0
    6.7070   -4.3549   10.1367 C   0  0  0  0  0  0  0  0  0  0  0  0
    7.2720   -3.2984    9.4143 C   0  0  0  0  0  0  0  0  0  0  0  0
    5.5947   -6.5424   10.1965 C   0  0  0  0  0  0  0  0  0  0  0  0
    5.1499   -7.4418   10.7852 N   0  0  0  0  0  0  0  0  0  0  0  0
   12.4673   -0.2935    5.1509 O   0  0  0  0  0  0  0  0  0  0  0  0
   12.9526   -1.2688    6.0780 C   0  0  0  0  0  0  0  0  0  0  0  0
   14.4642   -1.1043    6.2043 C   0  0  0  0  0  0  0  0  0  0  0  0
   15.0442   -2.1061    7.2002 C   0  0  0  0  0  0  0  0  0  0  0  0
   16.5501   -1.9118    7.3721 C   0  0  0  0  0  0  0  0  0  0  0  0
   17.1169   -2.9241    8.3679 C   0  0  0  0  0  0  0  0  0  0  0  0
   18.6134   -2.7420    8.5596 C   0  0  0  0  0  0  0  0  0  0  0  0
   11.5531    1.7109    3.4517 C   0  0  0  0  0  0  0  0  0  0  0  0
   11.1476    2.5901    2.6902 O   0  0  0  0  0  0  0  0  0  0  0  0
    0.0686    3.2409    0.8770 H   0  0  0  0  0  0  0  0  0  0  0  0
    0.1087    2.5683    2.5163 H   0  0  0  0  0  0  0  0  0  0  0  0
    0.3000    1.4999    1.1129 H   0  0  0  0  0  0  0  0  0  0  0  0
    2.2567    3.7153    1.9195 H   0  0  0  0  0  0  0  0  0  0  0  0
    2.4464    2.6352    0.5364 H   0  0  0  0  0  0  0  0  0  0  0  0
    2.5226    0.6646    2.0760 H   0  0  0  0  0  0  0  0  0  0  0  0
    2.3159    1.7344    3.4648 H   0  0  0  0  0  0  0  0  0  0  0  0
    4.4437    2.9231    2.8554 H   0  0  0  0  0  0  0  0  0  0  0  0
    4.6491    1.8381    1.4795 H   0  0  0  0  0  0  0  0  0  0  0  0
    4.7034   -0.1285    3.0643 H   0  0  0  0  0  0  0  0  0  0  0  0
    4.5208    0.9604    4.4193 H   0  0  0  0  0  0  0  0  0  0  0  0
    6.6630    2.0959    3.8285 H   0  0  0  0  0  0  0  0  0  0  0  0
    6.8454    0.9867    2.4287 H   0  0  0  0  0  0  0  0  0  0  0  0
    8.9139    1.7012    3.2085 H   0  0  0  0  0  0  0  0  0  0  0  0
   10.5236   -1.8976    6.2069 H   0  0  0  0  0  0  0  0  0  0  0  0
    7.1600   -2.3727    5.3576 H   0  0  0  0  0  0  0  0  0  0  0  0
    8.7244   -1.6936    7.9297 H   0  0  0  0  0  0  0  0  0  0  0  0
    6.7325   -4.4680    6.2605 H   0  0  0  0  0  0  0  0  0  0  0  0
    5.7359   -6.3116    7.5247 H   0  0  0  0  0  0  0  0  0  0  0  0
    6.7214   -4.3215   11.2243 H   0  0  0  0  0  0  0  0  0  0  0  0
    7.7151   -2.4671    9.9602 H   0  0  0  0  0  0  0  0  0  0  0  0
   12.7243   -2.2770    5.7108 H   0  0  0  0  0  0  0  0  0  0  0  0
   12.4929   -1.1158    7.0627 H   0  0  0  0  0  0  0  0  0  0  0  0
   14.6948   -0.0779    6.5154 H   0  0  0  0  0  0  0  0  0  0  0  0
   14.9335   -1.2296    5.2205 H   0  0  0  0  0  0  0  0  0  0  0  0
   14.8418   -3.1279    6.8552 H   0  0  0  0  0  0  0  0  0  0  0  0
   14.5491   -1.9912    8.1729 H   0  0  0  0  0  0  0  0  0  0  0  0
   16.7505   -0.8930    7.7279 H   0  0  0  0  0  0  0  0  0  0  0  0
   17.0509   -2.0239    6.4018 H   0  0  0  0  0  0  0  0  0  0  0  0
   16.9204   -3.9441    8.0157 H   0  0  0  0  0  0  0  0  0  0  0  0
   16.6162   -2.8137    9.3376 H   0  0  0  0  0  0  0  0  0  0  0  0
   19.1494   -2.8699    7.6137 H   0  0  0  0  0  0  0  0  0  0  0  0
   18.9956   -3.4815    9.2704 H   0  0  0  0  0  0  0  0  0  0  0  0
   18.8409   -1.7457    8.9521 H   0  0  0  0  0  0  0  0  0  0  0  0
   12.6293    1.5891    3.6454 H   0  0  0  0  0  0  0  0  0  0  0  0
  1  2  1  0  0  0  0
  1 33  1  0  0  0  0
  1 34  1  0  0  0  0
  1 35  1  0  0  0  0
  2  3  1  0  0  0  0
  2 36  1  0  0  0  0
  2 37  1  0  0  0  0
  3  4  1  0  0  0  0
  3 38  1  0  0  0  0
  3 39  1  0  0  0  0
  4  5  1  0  0  0  0
  4 40  1  0  0  0  0
  4 41  1  0  0  0  0
  5  6  1  0  0  0  0
  5 42  1  0  0  0  0
  5 43  1  0  0  0  0
  6  7  1  0  0  0  0
  6 44  1  0  0  0  0
  6 45  1  0  0  0  0
  7  8  1  0  0  0  0
  8  9  2  0  0  0  0
  8 13  1  0  0  0  0
  9 10  1  0  0  0  0
  9 46  1  0  0  0  0
 10 11  2  0  0  0  0
 10 31  1  0  0  0  0
 11 12  1  0  0  0  0
 11 24  1  0  0  0  0
 12 13  2  0  0  0  0
 12 47  1  0  0  0  0
 13 14  1  0  0  0  0
 14 15  2  0  0  0  0
 14 48  1  0  0  0  0
 15 16  1  0  0  0  0
 15 49  1  0  0  0  0
 16 17  2  0  0  0  0
 16 21  1  0  0  0  0
 17 18  1  0  0  0  0
 17 50  1  0  0  0  0
 18 19  2  0  0  0  0
 18 51  1  0  0  0  0
 19 20  1  0  0  0  0
 19 22  1  0  0  0  0
 20 21  2  0  0  0  0
 20 52  1  0  0  0  0
 21 53  1  0  0  0  0
 22 23  3  0  0  0  0
 24 25  1  0  0  0  0
 25 26  1  0  0  0  0
 25 54  1  0  0  0  0
 25 55  1  0  0  0  0
 26 27  1  0  0  0  0
 26 56  1  0  0  0  0
 26 57  1  0  0  0  0
 27 28  1  0  0  0  0
 27 58  1  0  0  0  0
 27 59  1  0  0  0  0
 28 29  1  0  0  0  0
 28 60  1  0  0  0  0
 28 61  1  0  0  0  0
 29 30  1  0  0  0  0
 29 62  1  0  0  0  0
 29 63  1  0  0  0  0
 30 64  1  0  0  0  0
 30 65  1  0  0  0  0
 30 66  1  0  0  0  0
 31 32  2  0  0  0  0
 31 67  1  0  0  0  0
M  END
