
 OpenBabel10072620113D

 29 28  0  0  0  0  0  0  0  0999 V2000
    0.8865   -0.0804   -0.1658 C   0  0  0  0  0  0  0  0  0  0  0  0
    2.4059   -0.0391   -0.1352 C   0  0  0  0  0  0  0  0  0  0  0  0
    2.9772   -1.0876    0.8191 C   0  0  0  0  0  0  0  0  0  0  0  0
    4.5065   -1.0428    0.8401 C   0  0  0  0  0  0  0  0  0  0  0  0
    5.0813   -2.1074    1.7774 C   0  0  0  0  0  0  0  0  0  0  0  0
    6.6102   -2.1729    1.7444 C   0  0  0  0  0  0  0  0  0  0  0  0
    7.2779   -0.9386    2.3491 C   0  0  0  0  0  0  0  0  0  0  0  0
    8.7293   -1.0731    2.3723 N   0  0  0  0  0  0  0  0  0  0  0  0
    9.5919   -0.7399    1.3673 C   0  0  0  0  0  0  0  0  0  0  0  0
    9.2377   -0.0570   -0.1030 S   0  0  0  0  0  0  0  0  0  0  0  0
   10.8833   -1.0336    1.6756 N   0  0  0  0  0  0  0  0  0  0  0  0
    0.5012    0.6737   -0.8591 H   0  0  0  0  0  0  0  0  0  0  0  0
    0.4675    0.1235    0.8247 H   0  0  0  0  0  0  0  0  0  0  0  0
    0.5275   -1.0602   -0.4962 H   0  0  0  0  0  0  0  0  0  0  0  0
    2.7328    0.9611    0.1718 H   0  0  0  0  0  0  0  0  0  0  0  0
    2.7896   -0.2095   -1.1479 H   0  0  0  0  0  0  0  0  0  0  0  0
    2.6421   -2.0854    0.5109 H   0  0  0  0  0  0  0  0  0  0  0  0
    2.5907   -0.9152    1.8309 H   0  0  0  0  0  0  0  0  0  0  0  0
    4.8303   -0.0458    1.1585 H   0  0  0  0  0  0  0  0  0  0  0  0
    4.8919   -1.2010   -0.1744 H   0  0  0  0  0  0  0  0  0  0  0  0
    4.6903   -3.0896    1.4842 H   0  0  0  0  0  0  0  0  0  0  0  0
    4.7401   -1.9248    2.8036 H   0  0  0  0  0  0  0  0  0  0  0  0
    6.9506   -2.3259    0.7134 H   0  0  0  0  0  0  0  0  0  0  0  0
    6.9320   -3.0598    2.3053 H   0  0  0  0  0  0  0  0  0  0  0  0
    6.9605   -0.8117    3.3898 H   0  0  0  0  0  0  0  0  0  0  0  0
    7.0093   -0.0297    1.8048 H   0  0  0  0  0  0  0  0  0  0  0  0
    9.1081   -1.6625    3.0996 H   0  0  0  0  0  0  0  0  0  0  0  0
   11.1727   -1.0493    2.6429 H   0  0  0  0  0  0  0  0  0  0  0  0
   11.5817   -0.7156    1.0131 H   0  0  0  0  0  0  0  0  0  0  0  0
  1  2  1  0  0  0  0
  1 12  1  0  0  0  0
  1 13  1  0  0  0  0
  1 14  1  0  0  0  0
  2  3  1  0  0  0  0
  2 15  1  0  0  0  0
  2 16  1  0  0  0  0
  3  4  1  0  0  0  0
  3 17  1  0  0  0  0
  3 18  1  0  0  0  0
  4  5  1  0  0  0  0
  4 19  1  0  0  0  0
  4 20  1  0  0  0  0
  5  6  1  0  0  0  0
  5 21  1  0  0  0  0
  5 22  1  0  0  0  0
  6  7  1  0  0  0  0
  6 23  1  0  0  0  0
  6 24  1  0  0  0  0
  7  8  1  0  0  0  0
  7 25  1  0  0  0  0
  7 26  1  0  0  0  0
  8  9  1  0  0  0  0
  8 27  1  0  0  0  0
  9 10  2  0  0  0  0
  9 11  1  0  0  0  0
 11 28  1  0  0  0  0
 11 29  1  0  0  0  0
M  END
