
 OpenBabel10072616323D

 34 36  0  0  0  0  0  0  0  0999 V2000
    2.4838   -0.6258    0.1303 C   0  0  0  0  0  0  0  0  0  0  0  0
    2.3889    0.7585    0.1586 C   0  0  0  0  0  0  0  0  0  0  0  0
    1.1315    1.3670    0.1411 C   0  0  0  0  0  0  0  0  0  0  0  0
   -0.0431    0.6274    0.0983 C   0  0  0  0  0  0  0  0  0  0  0  0
    0.0448   -0.7757    0.0768 C   0  0  0  0  0  0  0  0  0  0  0  0
    1.3210   -1.3919    0.0902 C   0  0  0  0  0  0  0  0  0  0  0  0
   -1.1815   -1.4675    0.0544 C   0  0  0  0  0  0  0  0  0  0  0  0
   -2.4023   -0.7944    0.0234 C   0  0  0  0  0  0  0  0  0  0  0  0
   -2.3742    0.5856    0.0350 C   0  0  0  0  0  0  0  0  0  0  0  0
   -1.2173    1.2832    0.0866 N   0  0  0  0  0  0  0  0  0  0  0  0
   -3.6298    1.3500    0.0033 C   0  0  0  0  0  0  0  0  0  0  0  0
   -3.6890    2.6924    0.0236 C   0  0  0  0  0  0  0  0  0  0  0  0
   -4.9397    3.4626   -0.0178 C   0  0  0  0  0  0  0  0  0  0  0  0
   -6.0953    3.0526    0.6618 C   0  0  0  0  0  0  0  0  0  0  0  0
   -7.2573    3.8295    0.6238 C   0  0  0  0  0  0  0  0  0  0  0  0
   -7.2647    5.0278   -0.0859 C   0  0  0  0  0  0  0  0  0  0  0  0
   -6.1209    5.4586   -0.7532 C   0  0  0  0  0  0  0  0  0  0  0  0
   -4.9609    4.6793   -0.7134 C   0  0  0  0  0  0  0  0  0  0  0  0
   -8.8346    6.0789   -0.1367 Br  0  0  0  0  0  0  0  0  0  0  0  0
   -1.2229   -2.9386    0.0682 C   0  0  0  0  0  0  0  0  0  0  0  0
   -0.8438   -3.6355   -0.8529 O   0  0  0  0  0  0  0  0  0  0  0  0
   -1.7246   -3.4073    1.2299 O   0  0  0  0  0  0  0  0  0  0  0  0
    3.4577   -1.1093    0.1343 H   0  0  0  0  0  0  0  0  0  0  0  0
    3.2875    1.3696    0.1898 H   0  0  0  0  0  0  0  0  0  0  0  0
    1.0667    2.4530    0.1604 H   0  0  0  0  0  0  0  0  0  0  0  0
    1.4179   -2.4767    0.0576 H   0  0  0  0  0  0  0  0  0  0  0  0
   -3.3380   -1.3423   -0.0237 H   0  0  0  0  0  0  0  0  0  0  0  0
   -4.5417    0.7639   -0.0561 H   0  0  0  0  0  0  0  0  0  0  0  0
   -2.7737    3.2818    0.0486 H   0  0  0  0  0  0  0  0  0  0  0  0
   -6.1027    2.1317    1.2392 H   0  0  0  0  0  0  0  0  0  0  0  0
   -8.1440    3.4935    1.1546 H   0  0  0  0  0  0  0  0  0  0  0  0
   -6.1185    6.3950   -1.3047 H   0  0  0  0  0  0  0  0  0  0  0  0
   -4.0740    5.0278   -1.2391 H   0  0  0  0  0  0  0  0  0  0  0  0
   -1.8912   -2.7258    1.9100 H   0  0  0  0  0  0  0  0  0  0  0  0
  1  2  2  0  0  0  0
  1  6  1  0  0  0  0
  1 23  1  0  0  0  0
  2  3  1  0  0  0  0
  2 24  1  0  0  0  0
  3  4  2  0  0  0  0
  3 25  1  0  0  0  0
  4  5  1  0  0  0  0
  4 10  1  0  0  0  0
  5  6  2  0  0  0  0
  5  7  1  0  0  0  0
  6 26  1  0  0  0  0
  7  8  2  0  0  0  0
  7 20  1  0  0  0  0
  8  9  1  0  0  0  0
  8 27  1  0  0  0  0
  9 10  2  0  0  0  0
  9 11  1  0  0  0  0
 11 12  2  0  0  0  0
 11 28  1  0  0  0  0
 12 13  1  0  0  0  0
 12 29  1  0  0  0  0
 13 14  2  0  0  0  0
 13 18  1  0  0  0  0
 14 15  1  0  0  0  0
 14 30  1  0  0  0  0
 15 16  2  0  0  0  0
 15 31  1  0  0  0  0
 16 17  1  0  0  0  0
 16 19  1  0  0  0  0
 17 18  2  0  0  0  0
 17 32  1  0  0  0  0
 18 33  1  0  0  0  0
 20 21  2  0  0  0  0
 20 22  1  0  0  0  0
 22 34  1  0  0  0  0
M  END
