
 OpenBabel10072620203D

 35 37  0  0  0  0  0  0  0  0999 V2000
    1.1401   -1.0851   -1.1119 C   0  0  0  0  0  0  0  0  0  0  0  0
    2.6272   -0.8708   -1.3152 C   0  0  0  0  0  0  0  0  0  0  0  0
    2.8754    0.5321   -1.4353 O   0  0  0  0  0  0  0  0  0  0  0  0
    4.1927    0.9118   -1.5168 C   0  0  0  0  0  0  0  0  0  0  0  0
    5.2673    0.0326   -1.6896 C   0  0  0  0  0  0  0  0  0  0  0  0
    6.5767    0.5192   -1.7556 C   0  0  0  0  0  0  0  0  0  0  0  0
    6.8265    1.8843   -1.6460 C   0  0  0  0  0  0  0  0  0  0  0  0
    5.7649    2.7693   -1.4770 C   0  0  0  0  0  0  0  0  0  0  0  0
    4.4533    2.2892   -1.4159 C   0  0  0  0  0  0  0  0  0  0  0  0
    3.3820    3.2361   -1.2640 N   0  0  0  0  0  0  0  0  0  0  0  0
    2.9486    4.1114   -2.6586 S   0  0  0  0  0  0  0  0  0  0  0  0
    2.0663    5.1873   -2.2570 O   0  0  0  0  0  0  0  0  0  0  0  0
    4.1330    4.3973   -3.4417 O   0  0  0  0  0  0  0  0  0  0  0  0
    1.9723    2.9723   -3.5688 C   0  0  0  0  0  0  0  0  0  0  0  0
    2.3547    2.5432   -4.8561 C   0  0  0  0  0  0  0  0  0  0  0  0
    1.5706    1.6565   -5.6295 C   0  0  0  0  0  0  0  0  0  0  0  0
    0.3378    1.1414   -5.1899 C   0  0  0  0  0  0  0  0  0  0  0  0
   -0.0897    1.5478   -3.9011 C   0  0  0  0  0  0  0  0  0  0  0  0
   -1.2317    1.1798   -3.3018 N   0  0  0  0  0  0  0  0  0  0  0  0
   -1.2553    1.9344   -1.8228 S   0  0  0  0  0  0  0  0  0  0  0  0
    0.2100    2.7113   -1.8540 N   0  0  0  0  0  0  0  0  0  0  0  0
    0.7513    2.4760   -3.0605 C   0  0  0  0  0  0  0  0  0  0  0  0
    0.9229   -2.1416   -0.9317 H   0  0  0  0  0  0  0  0  0  0  0  0
    0.5880   -0.7705   -2.0009 H   0  0  0  0  0  0  0  0  0  0  0  0
    0.7703   -0.4923   -0.2688 H   0  0  0  0  0  0  0  0  0  0  0  0
    2.9367   -1.3907   -2.2297 H   0  0  0  0  0  0  0  0  0  0  0  0
    3.1612   -1.2779   -0.4488 H   0  0  0  0  0  0  0  0  0  0  0  0
    5.1277   -1.0399   -1.7761 H   0  0  0  0  0  0  0  0  0  0  0  0
    7.4047   -0.1730   -1.8880 H   0  0  0  0  0  0  0  0  0  0  0  0
    7.8446    2.2624   -1.6950 H   0  0  0  0  0  0  0  0  0  0  0  0
    5.9623    3.8355   -1.3918 H   0  0  0  0  0  0  0  0  0  0  0  0
    2.5403    2.7985   -0.8740 H   0  0  0  0  0  0  0  0  0  0  0  0
    3.2900    2.9096   -5.2833 H   0  0  0  0  0  0  0  0  0  0  0  0
    1.9336    1.3683   -6.6171 H   0  0  0  0  0  0  0  0  0  0  0  0
   -0.2570    0.4736   -5.8018 H   0  0  0  0  0  0  0  0  0  0  0  0
  1  2  1  0  0  0  0
  1 23  1  0  0  0  0
  1 24  1  0  0  0  0
  1 25  1  0  0  0  0
  2  3  1  0  0  0  0
  2 26  1  0  0  0  0
  2 27  1  0  0  0  0
  3  4  1  0  0  0  0
  4  5  2  0  0  0  0
  4  9  1  0  0  0  0
  5  6  1  0  0  0  0
  5 28  1  0  0  0  0
  6  7  2  0  0  0  0
  6 29  1  0  0  0  0
  7  8  1  0  0  0  0
  7 30  1  0  0  0  0
  8  9  2  0  0  0  0
  8 31  1  0  0  0  0
  9 10  1  0  0  0  0
 10 11  1  0  0  0  0
 10 32  1  0  0  0  0
 11 12  2  0  0  0  0
 11 13  2  0  0  0  0
 11 14  1  0  0  0  0
 14 15  2  0  0  0  0
 14 22  1  0  0  0  0
 15 16  1  0  0  0  0
 15 33  1  0  0  0  0
 16 17  2  0  0  0  0
 16 34  1  0  0  0  0
 17 18  1  0  0  0  0
 17 35  1  0  0  0  0
 18 19  2  0  0  0  0
 18 22  1  0  0  0  0
 19 20  1  0  0  0  0
 20 21  1  0  0  0  0
 21 22  2  0  0  0  0
M  END
