
 OpenBabel10072619443D

178179  0  0  1  0  0  0  0  0999 V2000
    4.1301    2.9829   -4.4400 C   0  0  0  0  0  0  0  0  0  0  0  0
    3.9898    1.4687   -4.2891 C   0  0  0  0  0  0  0  0  0  0  0  0
    4.5118    0.9621   -2.9355 C   0  0  0  0  0  0  0  0  0  0  0  0
    4.1460   -0.5228   -2.6352 C   0  0  0  0  0  0  0  0  0  0  0  0
    5.1488   -1.5767   -3.1690 C   0  0  3  0  0  0  0  0  0  0  0  0
    4.6666   -3.1217   -3.2270 C   0  0  3  0  0  0  0  0  0  0  0  0
    3.1600   -3.5985   -3.2648 C   0  0  3  0  0  0  0  0  0  0  0  0
    3.0184   -5.1979   -3.4241 C   0  0  0  0  0  0  0  0  0  0  0  0
    1.6815   -5.7957   -2.8938 C   0  0  0  0  0  0  0  0  0  0  0  0
    1.4027   -7.3359   -2.9667 C   0  0  3  0  0  0  0  0  0  0  0  0
    1.9091   -8.3125   -1.8571 C   0  0  0  0  0  0  0  0  0  0  0  0
    1.0003   -8.5151   -0.6049 C   0  0  0  0  0  0  0  0  0  0  0  0
    1.6021   -9.5233    0.4115 C   0  0  0  0  0  0  0  0  0  0  0  0
    1.0894   -9.4335    1.8777 C   0  0  3  0  0  0  0  0  0  0  0  0
    1.8670   -8.3636    2.6627 C   0  0  0  0  0  0  0  0  0  0  0  0
    1.6018   -8.2785    4.1708 C   0  0  0  0  0  0  0  0  0  0  0  0
    2.3932   -7.1213    4.8369 C   0  0  0  0  0  0  0  0  0  0  0  0
    1.5829   -5.8098    4.9338 C   0  0  3  0  0  0  0  0  0  0  0  0
    2.3303   -4.5908    5.4487 C   0  0  0  0  0  0  0  0  0  0  0  0
    2.3460   -3.3544    4.9147 C   0  0  0  0  0  0  0  0  0  0  0  0
    1.6849   -2.7646    3.6891 C   0  0  3  0  0  0  0  0  0  0  0  0
    1.5062   -1.2117    3.6623 C   0  0  3  0  0  0  0  0  0  0  0  0
    1.3768   -0.5551    2.2574 C   0  0  0  0  0  0  0  0  0  0  0  0
    0.7353   -1.3864    1.1410 C   0  0  3  0  0  0  0  0  0  0  0  0
    1.7134   -2.3578    0.4245 C   0  0  0  0  0  0  0  0  0  0  0  0
    1.0777   -3.7519    0.3845 C   0  0  3  0  0  0  0  0  0  0  0  0
    1.9220   -5.0149    0.6304 C   0  0  0  0  0  0  0  0  0  0  0  0
    3.4538   -5.0348    0.6462 C   0  0  3  0  0  0  0  0  0  0  0  0
    3.9410   -6.4983    0.6274 C   0  0  0  0  0  0  0  0  0  0  0  0
    5.3454   -6.8440    0.1243 C   0  0  3  0  0  0  0  0  0  0  0  0
    6.3931   -6.0952    0.9077 C   0  0  0  0  0  0  0  0  0  0  0  0
    7.8430   -6.4142    0.5370 C   0  0  0  0  0  0  0  0  0  0  0  0
    8.8236   -5.5147    1.3213 C   0  0  0  0  0  0  0  0  0  0  0  0
    8.3414   -4.0508    1.3108 C   0  0  0  0  0  0  0  0  0  0  0  0
    9.1017   -2.9460    1.9905 C   0  0  0  0  0  0  0  0  0  0  0  0
    9.0846   -1.6425    1.6246 C   0  0  0  0  0  0  0  0  0  0  0  0
    8.4284   -0.8389    0.4723 C   0  0  3  0  0  0  0  0  0  0  0  0
    6.9808   -1.2132   -0.0085 C   0  0  3  0  0  0  0  0  0  0  0  0
    6.5230   -0.6675   -1.3019 O   0  0  0  0  0  0  0  0  0  0  0  0
    6.5049   -1.5349   -2.3797 C   0  0  0  0  0  0  0  0  0  0  0  0
    7.4285   -2.3169   -2.6100 O   0  0  0  0  0  0  0  0  0  0  0  0
    5.8362   -0.9110    1.0328 C   0  0  3  0  0  0  0  0  0  0  0  0
    5.6349   -2.1528    1.9006 C   0  0  0  0  0  0  0  0  0  0  0  0
    5.9018    0.3305    1.9786 C   0  0  3  0  0  0  0  0  0  0  0  0
    5.8856    1.7021    1.2729 C   0  0  0  0  0  0  0  0  0  0  0  0
    5.4912    2.8994    2.1770 C   0  0  0  0  0  0  0  0  0  0  0  0
    5.0358    4.1217    1.3582 C   0  0  0  0  0  0  0  0  0  0  0  0
    6.1889    4.9702    1.1477 N   0  0  0  0  0  0  0  0  0  0  0  0
    6.1084    6.2504    1.3250 C   0  0  0  0  0  0  0  0  0  0  0  0
    5.0624    7.0297    1.6163 N   0  0  0  0  0  0  0  0  0  0  0  0
    7.2405    6.9695    1.2447 N   0  0  0  0  0  0  0  0  0  0  0  0
    4.7453    0.2381    2.8419 O   0  0  0  0  0  0  0  0  0  0  0  0
    9.4538   -0.7808   -0.6596 C   0  0  0  0  0  0  0  0  0  0  0  0
    9.8000   -3.3831    3.2603 C   0  0  0  0  0  0  0  0  0  0  0  0
    5.4619   -6.5872   -1.2669 O   0  0  0  0  0  0  0  0  0  0  0  0
    3.8891   -4.4589    1.8699 O   0  0  0  0  0  0  0  0  0  0  0  0
    0.3003   -3.8885   -0.8099 O   0  0  0  0  0  0  0  0  0  0  0  0
    0.1380   -0.5361    0.1570 O   0  0  0  0  0  0  0  0  0  0  0  0
    2.5402   -0.5148    4.3760 O   0  0  0  0  0  0  0  0  0  0  0  0
    0.5147   -3.4937    3.3097 O   0  0  0  0  0  0  0  0  0  0  0  0
   -0.6888   -3.2768    4.0481 C   0  0  3  0  0  0  0  0  0  0  0  0
   -1.6532   -4.4347    3.7341 C   0  0  3  0  0  0  0  0  0  0  0  0
   -2.7062   -3.8440    2.8103 C   0  0  3  0  0  0  0  0  0  0  0  0
   -2.6545   -2.3560    3.1178 C   0  0  3  0  0  0  0  0  0  0  0  0
   -1.3398   -2.0675    3.6379 O   0  0  0  0  0  0  0  0  0  0  0  0
   -3.6926   -1.8860    4.1378 C   0  0  0  0  0  0  0  0  0  0  0  0
   -3.4691   -0.5088    4.4392 O   0  0  0  0  0  0  0  0  0  0  0  0
   -3.9834   -4.4299    3.0617 O   0  0  0  0  0  0  0  0  0  0  0  0
   -2.2636   -4.9214    4.9389 O   0  0  0  0  0  0  0  0  0  0  0  0
    2.9878   -4.7358    6.8039 C   0  0  0  0  0  0  0  0  0  0  0  0
    0.5296   -6.0282    5.8702 O   0  0  0  0  0  0  0  0  0  0  0  0
    1.2934  -10.6978    2.5146 O   0  0  0  0  0  0  0  0  0  0  0  0
    1.9202   -7.8123   -4.2121 O   0  0  0  0  0  0  0  0  0  0  0  0
    2.3107   -2.8568   -4.3047 C   0  0  0  0  0  0  0  0  0  0  0  0
    5.2195   -3.8406   -2.1031 O   0  0  0  0  0  0  0  0  0  0  0  0
    3.6846    3.3135   -5.3856 H   0  0  0  0  0  0  0  0  0  0  0  0
    5.1803    3.2916   -4.4380 H   0  0  0  0  0  0  0  0  0  0  0  0
    3.6155    3.5126   -3.6311 H   0  0  0  0  0  0  0  0  0  0  0  0
    4.5272    0.9780   -5.1078 H   0  0  0  0  0  0  0  0  0  0  0  0
    2.9289    1.2159   -4.3948 H   0  0  0  0  0  0  0  0  0  0  0  0
    4.0605    1.5818   -2.1488 H   0  0  0  0  0  0  0  0  0  0  0  0
    5.5928    1.1354   -2.8776 H   0  0  0  0  0  0  0  0  0  0  0  0
    3.1380   -0.6902   -3.0152 H   0  0  0  0  0  0  0  0  0  0  0  0
    4.0748   -0.6351   -1.5509 H   0  0  0  0  0  0  0  0  0  0  0  0
    5.3648   -1.2809   -4.2090 H   0  0  0  0  0  0  0  0  0  0  0  0
    5.1516   -3.5425   -4.1212 H   0  0  0  0  0  0  0  0  0  0  0  0
    2.7510   -3.3781   -2.2712 H   0  0  0  0  0  0  0  0  0  0  0  0
    3.8179   -5.6958   -2.8736 H   0  0  0  0  0  0  0  0  0  0  0  0
    3.1494   -5.4687   -4.4791 H   0  0  0  0  0  0  0  0  0  0  0  0
    0.8655   -5.2929   -3.4313 H   0  0  0  0  0  0  0  0  0  0  0  0
    1.5789   -5.4839   -1.8724 H   0  0  0  0  0  0  0  0  0  0  0  0
    0.3122   -7.4610   -3.0089 H   0  0  0  0  0  0  0  0  0  0  0  0
    2.9324   -8.0436   -1.5843 H   0  0  0  0  0  0  0  0  0  0  0  0
    2.0269   -9.3120   -2.3064 H   0  0  0  0  0  0  0  0  0  0  0  0
    0.0305   -8.9121   -0.9359 H   0  0  0  0  0  0  0  0  0  0  0  0
    0.7778   -7.5701   -0.1128 H   0  0  0  0  0  0  0  0  0  0  0  0
    2.6925   -9.4051    0.4322 H   0  0  0  0  0  0  0  0  0  0  0  0
    1.4313  -10.5399    0.0341 H   0  0  0  0  0  0  0  0  0  0  0  0
    0.0130   -9.2331    1.9095 H   0  0  0  0  0  0  0  0  0  0  0  0
    1.6680   -7.3958    2.2067 H   0  0  0  0  0  0  0  0  0  0  0  0
    2.9354   -8.5859    2.5543 H   0  0  0  0  0  0  0  0  0  0  0  0
    1.9289   -9.2178    4.6334 H   0  0  0  0  0  0  0  0  0  0  0  0
    0.5292   -8.1802    4.3681 H   0  0  0  0  0  0  0  0  0  0  0  0
    3.3480   -6.9655    4.3177 H   0  0  0  0  0  0  0  0  0  0  0  0
    2.6301   -7.4608    5.8534 H   0  0  0  0  0  0  0  0  0  0  0  0
    1.1515   -5.6235    3.9478 H   0  0  0  0  0  0  0  0  0  0  0  0
    2.9290   -2.6054    5.4631 H   0  0  0  0  0  0  0  0  0  0  0  0
    2.4167   -2.9705    2.9118 H   0  0  0  0  0  0  0  0  0  0  0  0
    0.5982   -0.9701    4.2164 H   0  0  0  0  0  0  0  0  0  0  0  0
    2.3486   -0.1939    1.9040 H   0  0  0  0  0  0  0  0  0  0  0  0
    0.7971    0.3692    2.3991 H   0  0  0  0  0  0  0  0  0  0  0  0
   -0.1134   -1.9185    1.5590 H   0  0  0  0  0  0  0  0  0  0  0  0
    2.6789   -2.3742    0.9292 H   0  0  0  0  0  0  0  0  0  0  0  0
    1.9033   -1.9996   -0.5982 H   0  0  0  0  0  0  0  0  0  0  0  0
    0.3095   -3.8270    1.1484 H   0  0  0  0  0  0  0  0  0  0  0  0
    1.5814   -5.7760   -0.0558 H   0  0  0  0  0  0  0  0  0  0  0  0
    1.6092   -5.3817    1.6125 H   0  0  0  0  0  0  0  0  0  0  0  0
    3.8635   -4.4598   -0.1803 H   0  0  0  0  0  0  0  0  0  0  0  0
    3.2525   -7.0594    0.0152 H   0  0  0  0  0  0  0  0  0  0  0  0
    3.8744   -6.8889    1.6448 H   0  0  0  0  0  0  0  0  0  0  0  0
    5.4948   -7.9222    0.2571 H   0  0  0  0  0  0  0  0  0  0  0  0
    6.2470   -6.2504    1.9848 H   0  0  0  0  0  0  0  0  0  0  0  0
    6.2035   -5.0472    0.6794 H   0  0  0  0  0  0  0  0  0  0  0  0
    7.9945   -6.2615   -0.5381 H   0  0  0  0  0  0  0  0  0  0  0  0
    8.0608   -7.4702    0.7429 H   0  0  0  0  0  0  0  0  0  0  0  0
    9.8282   -5.6068    0.8956 H   0  0  0  0  0  0  0  0  0  0  0  0
    8.8675   -5.8855    2.3530 H   0  0  0  0  0  0  0  0  0  0  0  0
    7.4080   -4.0626    1.8746 H   0  0  0  0  0  0  0  0  0  0  0  0
    8.1458   -3.7923    0.2694 H   0  0  0  0  0  0  0  0  0  0  0  0
    9.6728   -0.9749    2.2630 H   0  0  0  0  0  0  0  0  0  0  0  0
    8.3675    0.1921    0.8464 H   0  0  0  0  0  0  0  0  0  0  0  0
    6.9769   -2.2866   -0.1804 H   0  0  0  0  0  0  0  0  0  0  0  0
    4.8997   -0.8125    0.4677 H   0  0  0  0  0  0  0  0  0  0  0  0
    6.4182   -2.2575    2.6536 H   0  0  0  0  0  0  0  0  0  0  0  0
    5.6238   -3.0329    1.2600 H   0  0  0  0  0  0  0  0  0  0  0  0
    4.6787   -2.1307    2.4271 H   0  0  0  0  0  0  0  0  0  0  0  0
    6.7729    0.2592    2.6395 H   0  0  0  0  0  0  0  0  0  0  0  0
    5.1672    1.6432    0.4487 H   0  0  0  0  0  0  0  0  0  0  0  0
    6.8667    1.9024    0.8272 H   0  0  0  0  0  0  0  0  0  0  0  0
    6.3289    3.1664    2.8364 H   0  0  0  0  0  0  0  0  0  0  0  0
    4.6639    2.6355    2.8453 H   0  0  0  0  0  0  0  0  0  0  0  0
    4.2276    4.6256    1.9036 H   0  0  0  0  0  0  0  0  0  0  0  0
    4.6156    3.8090    0.3935 H   0  0  0  0  0  0  0  0  0  0  0  0
    4.1117    6.6966    1.5337 H   0  0  0  0  0  0  0  0  0  0  0  0
    5.1928    8.0301    1.6828 H   0  0  0  0  0  0  0  0  0  0  0  0
    8.0075    6.3724    0.9478 H   0  0  0  0  0  0  0  0  0  0  0  0
    7.1729    7.7859    0.6522 H   0  0  0  0  0  0  0  0  0  0  0  0
    4.0405    0.7867    2.4570 H   0  0  0  0  0  0  0  0  0  0  0  0
    9.5086   -1.7361   -1.1886 H   0  0  0  0  0  0  0  0  0  0  0  0
   10.4588   -0.5640   -0.2721 H   0  0  0  0  0  0  0  0  0  0  0  0
    9.2092    0.0120   -1.3725 H   0  0  0  0  0  0  0  0  0  0  0  0
   10.4334   -4.2600    3.0844 H   0  0  0  0  0  0  0  0  0  0  0  0
    9.0522   -3.6481    4.0189 H   0  0  0  0  0  0  0  0  0  0  0  0
   10.4425   -2.6000    3.6713 H   0  0  0  0  0  0  0  0  0  0  0  0
    5.5954   -5.6270   -1.4250 H   0  0  0  0  0  0  0  0  0  0  0  0
    3.5554   -4.9984    2.6103 H   0  0  0  0  0  0  0  0  0  0  0  0
   -0.3486   -3.1572   -0.8281 H   0  0  0  0  0  0  0  0  0  0  0  0
    0.8108    0.0718   -0.1898 H   0  0  0  0  0  0  0  0  0  0  0  0
    3.4072   -0.6538    3.9434 H   0  0  0  0  0  0  0  0  0  0  0  0
   -0.4772   -3.2149    5.1212 H   0  0  0  0  0  0  0  0  0  0  0  0
   -1.1560   -5.2893    3.2622 H   0  0  0  0  0  0  0  0  0  0  0  0
   -2.4442   -4.0046    1.7570 H   0  0  0  0  0  0  0  0  0  0  0  0
   -2.7686   -1.7635    2.2015 H   0  0  0  0  0  0  0  0  0  0  0  0
   -3.6070   -2.4407    5.0766 H   0  0  0  0  0  0  0  0  0  0  0  0
   -4.7122   -1.9925    3.7535 H   0  0  0  0  0  0  0  0  0  0  0  0
   -2.5078   -0.4275    4.5943 H   0  0  0  0  0  0  0  0  0  0  0  0
   -3.9918   -5.3174    2.6571 H   0  0  0  0  0  0  0  0  0  0  0  0
   -3.2237   -4.7463    4.8516 H   0  0  0  0  0  0  0  0  0  0  0  0
    3.3071   -5.7545    7.0250 H   0  0  0  0  0  0  0  0  0  0  0  0
    2.2606   -4.4301    7.5632 H   0  0  0  0  0  0  0  0  0  0  0  0
    3.8747   -4.0966    6.8999 H   0  0  0  0  0  0  0  0  0  0  0  0
   -0.3222   -5.8641    5.4367 H   0  0  0  0  0  0  0  0  0  0  0  0
    2.2494  -10.8703    2.5639 H   0  0  0  0  0  0  0  0  0  0  0  0
    2.8748   -7.9593   -4.0861 H   0  0  0  0  0  0  0  0  0  0  0  0
    2.9257   -2.3623   -5.0655 H   0  0  0  0  0  0  0  0  0  0  0  0
    1.7044   -2.0867   -3.8121 H   0  0  0  0  0  0  0  0  0  0  0  0
    1.6023   -3.5098   -4.8240 H   0  0  0  0  0  0  0  0  0  0  0  0
    5.0940   -3.2849   -1.3209 H   0  0  0  0  0  0  0  0  0  0  0  0
  1  2  1  0  0  0  0
  1 76  1  0  0  0  0
  1 77  1  0  0  0  0
  1 78  1  0  0  0  0
  2  3  1  0  0  0  0
  2 79  1  0  0  0  0
  2 80  1  0  0  0  0
  3  4  1  0  0  0  0
  3 81  1  0  0  0  0
  3 82  1  0  0  0  0
  4  5  1  0  0  0  0
  4 83  1  0  0  0  0
  4 84  1  0  0  0  0
  5  6  1  0  0  0  0
  5 40  1  0  0  0  0
  5 85  1  0  0  0  0
  6  7  1  0  0  0  0
  6 75  1  0  0  0  0
  6 86  1  0  0  0  0
  7  8  1  0  0  0  0
  7 74  1  0  0  0  0
  7 87  1  0  0  0  0
  8  9  1  0  0  0  0
  8 88  1  0  0  0  0
  8 89  1  0  0  0  0
  9 10  1  0  0  0  0
  9 90  1  0  0  0  0
  9 91  1  0  0  0  0
 10 11  1  0  0  0  0
 10 73  1  0  0  0  0
 10 92  1  0  0  0  0
 11 12  1  0  0  0  0
 11 93  1  0  0  0  0
 11 94  1  0  0  0  0
 12 13  1  0  0  0  0
 12 95  1  0  0  0  0
 12 96  1  0  0  0  0
 13 14  1  0  0  0  0
 13 97  1  0  0  0  0
 13 98  1  0  0  0  0
 14 15  1  0  0  0  0
 14 72  1  0  0  0  0
 14 99  1  0  0  0  0
 15 16  1  0  0  0  0
 15100  1  0  0  0  0
 15101  1  0  0  0  0
 16 17  1  0  0  0  0
 16102  1  0  0  0  0
 16103  1  0  0  0  0
 17 18  1  0  0  0  0
 17104  1  0  0  0  0
 17105  1  0  0  0  0
 18 19  1  0  0  0  0
 18 71  1  0  0  0  0
 18106  1  0  0  0  0
 19 20  2  3  0  0  0
 19 70  1  0  0  0  0
 20 21  1  0  0  0  0
 20107  1  0  0  0  0
 21 22  1  0  0  0  0
 21 60  1  0  0  0  0
 21108  1  0  0  0  0
 22 23  1  0  0  0  0
 22 59  1  0  0  0  0
 22109  1  0  0  0  0
 23 24  1  0  0  0  0
 23110  1  0  0  0  0
 23111  1  0  0  0  0
 24 25  1  0  0  0  0
 24 58  1  0  0  0  0
 24112  1  0  0  0  0
 25 26  1  0  0  0  0
 25113  1  0  0  0  0
 25114  1  0  0  0  0
 26 27  1  0  0  0  0
 26 57  1  0  0  0  0
 26115  1  0  0  0  0
 27 28  1  0  0  0  0
 27116  1  0  0  0  0
 27117  1  0  0  0  0
 28 29  1  0  0  0  0
 28 56  1  0  0  0  0
 28118  1  0  0  0  0
 29 30  1  0  0  0  0
 29119  1  0  0  0  0
 29120  1  0  0  0  0
 30 31  1  0  0  0  0
 30 55  1  0  0  0  0
 30121  1  0  0  0  0
 31 32  1  0  0  0  0
 31122  1  0  0  0  0
 31123  1  0  0  0  0
 32 33  1  0  0  0  0
 32124  1  0  0  0  0
 32125  1  0  0  0  0
 33 34  1  0  0  0  0
 33126  1  0  0  0  0
 33127  1  0  0  0  0
 34 35  1  0  0  0  0
 34128  1  0  0  0  0
 34129  1  0  0  0  0
 35 36  2  3  0  0  0
 35 54  1  0  0  0  0
 36 37  1  0  0  0  0
 36130  1  0  0  0  0
 37 38  1  0  0  0  0
 37 53  1  0  0  0  0
 37131  1  0  0  0  0
 38 39  1  0  0  0  0
 38 42  1  0  0  0  0
 38132  1  0  0  0  0
 39 40  1  0  0  0  0
 40 41  2  0  0  0  0
 42 43  1  0  0  0  0
 42 44  1  0  0  0  0
 42133  1  0  0  0  0
 43134  1  0  0  0  0
 43135  1  0  0  0  0
 43136  1  0  0  0  0
 44 45  1  0  0  0  0
 44 52  1  0  0  0  0
 44137  1  0  0  0  0
 45 46  1  0  0  0  0
 45138  1  0  0  0  0
 45139  1  0  0  0  0
 46 47  1  0  0  0  0
 46140  1  0  0  0  0
 46141  1  0  0  0  0
 47 48  1  0  0  0  0
 47142  1  0  0  0  0
 47143  1  0  0  0  0
 48 49  2  0  0  0  0
 49 50  1  0  0  0  0
 49 51  1  0  0  0  0
 50144  1  0  0  0  0
 50145  1  0  0  0  0
 51146  1  0  0  0  0
 51147  1  0  0  0  0
 52148  1  0  0  0  0
 53149  1  0  0  0  0
 53150  1  0  0  0  0
 53151  1  0  0  0  0
 54152  1  0  0  0  0
 54153  1  0  0  0  0
 54154  1  0  0  0  0
 55155  1  0  0  0  0
 56156  1  0  0  0  0
 57157  1  0  0  0  0
 58158  1  0  0  0  0
 59159  1  0  0  0  0
 60 61  1  0  0  0  0
 61 62  1  0  0  0  0
 61 65  1  0  0  0  0
 61160  1  0  0  0  0
 62 63  1  0  0  0  0
 62 69  1  0  0  0  0
 62161  1  0  0  0  0
 63 64  1  0  0  0  0
 63 68  1  0  0  0  0
 63162  1  0  0  0  0
 64 65  1  0  0  0  0
 64 66  1  0  0  0  0
 64163  1  0  0  0  0
 66 67  1  0  0  0  0
 66164  1  0  0  0  0
 66165  1  0  0  0  0
 67166  1  0  0  0  0
 68167  1  0  0  0  0
 69168  1  0  0  0  0
 70169  1  0  0  0  0
 70170  1  0  0  0  0
 70171  1  0  0  0  0
 71172  1  0  0  0  0
 72173  1  0  0  0  0
 73174  1  0  0  0  0
 74175  1  0  0  0  0
 74176  1  0  0  0  0
 74177  1  0  0  0  0
 75178  1  0  0  0  0
M  END
