
 OpenBabel10072620213D

 47 50  0  0  0  0  0  0  0  0999 V2000
   -0.0688   -0.3130   -0.3731 C   0  0  0  0  0  0  0  0  0  0  0  0
    0.5525    0.6164    0.6586 C   0  0  0  0  0  0  0  0  0  0  0  0
    1.0256    1.8950    0.0178 C   0  0  0  0  0  0  0  0  0  0  0  0
    0.1611    2.9803   -0.1627 C   0  0  0  0  0  0  0  0  0  0  0  0
    0.6097    4.1382   -0.8067 C   0  0  0  0  0  0  0  0  0  0  0  0
    1.9264    4.2265   -1.2798 C   0  0  0  0  0  0  0  0  0  0  0  0
    2.7737    3.1269   -1.1274 C   0  0  0  0  0  0  0  0  0  0  0  0
    2.3343    1.9798   -0.4683 C   0  0  0  0  0  0  0  0  0  0  0  0
    2.3753    5.4669   -1.9194 C   0  0  0  0  0  0  0  0  0  0  0  0
    3.6387    5.9258   -1.8703 C   0  0  0  0  0  0  0  0  0  0  0  0
    3.9738    7.2305   -2.3326 C   0  0  0  0  0  0  0  0  0  0  0  0
    3.8415    7.6233   -3.5948 N   0  0  0  0  0  0  0  0  0  0  0  0
    3.9889    8.9798   -3.5603 N   0  0  0  0  0  0  0  0  0  0  0  0
    3.8682    9.4232   -2.2669 C   0  0  0  0  0  0  0  0  0  0  0  0
    4.2306    8.3279   -1.4927 C   0  0  0  0  0  0  0  0  0  0  0  0
    4.3198    8.4162   -0.0612 C   0  0  0  0  0  0  0  0  0  0  0  0
    3.1700    8.5792    0.6142 C   0  0  0  0  0  0  0  0  0  0  0  0
    2.3457    9.7922    0.4387 C   0  0  0  0  0  0  0  0  0  0  0  0
    2.2286   10.4451   -0.7312 C   0  0  0  0  0  0  0  0  0  0  0  0
    3.2527   10.6216   -1.7994 C   0  0  0  0  0  0  0  0  0  0  0  0
    3.3666   11.7445   -2.2845 O   0  0  0  0  0  0  0  0  0  0  0  0
    4.2129    9.6540   -4.7843 C   0  0  0  0  0  0  0  0  0  0  0  0
    3.9056   10.9903   -5.0439 C   0  0  0  0  0  0  0  0  0  0  0  0
    4.2275   11.5528   -6.2832 C   0  0  0  0  0  0  0  0  0  0  0  0
    4.8775   10.7834   -7.2456 C   0  0  0  0  0  0  0  0  0  0  0  0
    5.1890    9.4536   -6.9963 C   0  0  0  0  0  0  0  0  0  0  0  0
    4.8485    8.8910   -5.7756 C   0  0  0  0  0  0  0  0  0  0  0  0
    5.3527   11.5470   -8.9035 Br  0  0  0  0  0  0  0  0  0  0  0  0
   -0.3872   -1.2470    0.0991 H   0  0  0  0  0  0  0  0  0  0  0  0
    0.6472   -0.5601   -1.1651 H   0  0  0  0  0  0  0  0  0  0  0  0
   -0.9432    0.1469   -0.8460 H   0  0  0  0  0  0  0  0  0  0  0  0
    1.3996    0.1132    1.1414 H   0  0  0  0  0  0  0  0  0  0  0  0
   -0.1666    0.8370    1.4560 H   0  0  0  0  0  0  0  0  0  0  0  0
   -0.8667    2.9320    0.1904 H   0  0  0  0  0  0  0  0  0  0  0  0
   -0.0792    4.9717   -0.9275 H   0  0  0  0  0  0  0  0  0  0  0  0
    3.7851    3.1422   -1.5240 H   0  0  0  0  0  0  0  0  0  0  0  0
    3.0204    1.1457   -0.3475 H   0  0  0  0  0  0  0  0  0  0  0  0
    1.5985    6.0765   -2.3807 H   0  0  0  0  0  0  0  0  0  0  0  0
    4.4259    5.3758   -1.3703 H   0  0  0  0  0  0  0  0  0  0  0  0
    5.1589    9.0535    0.2444 H   0  0  0  0  0  0  0  0  0  0  0  0
    2.4162    7.7806    0.4735 H   0  0  0  0  0  0  0  0  0  0  0  0
    1.4142    9.7237    1.0051 H   0  0  0  0  0  0  0  0  0  0  0  0
    1.1874   10.5186   -1.1062 H   0  0  0  0  0  0  0  0  0  0  0  0
    3.3753   11.6355   -4.3584 H   0  0  0  0  0  0  0  0  0  0  0  0
    3.9621   12.5883   -6.4799 H   0  0  0  0  0  0  0  0  0  0  0  0
    5.7020    8.8373   -7.7261 H   0  0  0  0  0  0  0  0  0  0  0  0
    5.1259    7.8558   -5.5813 H   0  0  0  0  0  0  0  0  0  0  0  0
  1  2  1  0  0  0  0
  1 29  1  0  0  0  0
  1 30  1  0  0  0  0
  1 31  1  0  0  0  0
  2  3  1  0  0  0  0
  2 32  1  0  0  0  0
  2 33  1  0  0  0  0
  3  4  2  0  0  0  0
  3  8  1  0  0  0  0
  4  5  1  0  0  0  0
  4 34  1  0  0  0  0
  5  6  2  0  0  0  0
  5 35  1  0  0  0  0
  6  7  1  0  0  0  0
  6  9  1  0  0  0  0
  7  8  2  0  0  0  0
  7 36  1  0  0  0  0
  8 37  1  0  0  0  0
  9 10  2  0  0  0  0
  9 38  1  0  0  0  0
 10 11  1  0  0  0  0
 10 39  1  0  0  0  0
 11 12  2  0  0  0  0
 11 15  1  0  0  0  0
 12 13  1  0  0  0  0
 13 14  1  0  0  0  0
 13 22  1  0  0  0  0
 14 15  2  0  0  0  0
 14 20  1  0  0  0  0
 15 16  1  0  0  0  0
 16 17  2  0  0  0  0
 16 40  1  0  0  0  0
 17 18  1  0  0  0  0
 17 41  1  0  0  0  0
 18 19  2  0  0  0  0
 18 42  1  0  0  0  0
 19 20  1  0  0  0  0
 19 43  1  0  0  0  0
 20 21  2  0  0  0  0
 22 23  2  0  0  0  0
 22 27  1  0  0  0  0
 23 24  1  0  0  0  0
 23 44  1  0  0  0  0
 24 25  2  0  0  0  0
 24 45  1  0  0  0  0
 25 26  1  0  0  0  0
 25 28  1  0  0  0  0
 26 27  2  0  0  0  0
 26 46  1  0  0  0  0
 27 47  1  0  0  0  0
M  END
