
 OpenBabel10072620113D

 44 47  0  0  0  0  0  0  0  0999 V2000
    1.2540    1.7285    0.2418 C   0  0  0  0  0  0  0  0  0  0  0  0
   -0.2153    2.2275    0.0970 C   0  0  0  0  0  0  0  0  0  0  0  0
   -1.0139    0.9745    0.0013 C   0  0  0  0  0  0  0  0  0  0  0  0
   -2.3797    0.8381   -0.1637 C   0  0  0  0  0  0  0  0  0  0  0  0
   -2.8761   -0.4760   -0.2472 C   0  0  0  0  0  0  0  0  0  0  0  0
   -2.0458   -1.6137   -0.1621 C   0  0  0  0  0  0  0  0  0  0  0  0
   -0.6316   -1.4289    0.0063 C   0  0  0  0  0  0  0  0  0  0  0  0
    0.3990   -2.4049    0.1000 C   0  0  0  0  0  0  0  0  0  0  0  0
    1.7541   -2.0397    0.2355 C   0  0  0  0  0  0  0  0  0  0  0  0
    2.1505   -0.6984    0.2935 C   0  0  0  0  0  0  0  0  0  0  0  0
    1.1368    0.2439    0.2152 C   0  0  0  0  0  0  0  0  0  0  0  0
   -0.1885   -0.1282    0.0788 C   0  0  0  0  0  0  0  0  0  0  0  0
   -2.5231   -2.9458   -0.2934 N   0  0  0  0  0  0  0  0  0  0  0  0
   -3.7688   -3.5189   -0.4061 C   0  0  0  0  0  0  0  0  0  0  0  0
   -5.2872   -2.8517   -0.2201 S   0  0  0  0  0  0  0  0  0  0  0  0
   -3.7448   -4.8708   -0.7309 N   0  0  0  0  0  0  0  0  0  0  0  0
   -2.6580   -5.7035   -0.9634 C   0  0  0  0  0  0  0  0  0  0  0  0
   -1.4998   -5.4002   -0.6777 O   0  0  0  0  0  0  0  0  0  0  0  0
   -3.0219   -7.0678   -1.5382 C   0  0  0  0  0  0  0  0  0  0  0  0
   -4.3161   -7.0219   -2.1455 O   0  0  0  0  0  0  0  0  0  0  0  0
   -4.4380   -8.0184   -3.0754 C   0  0  0  0  0  0  0  0  0  0  0  0
   -5.1017   -9.1934   -2.7315 C   0  0  0  0  0  0  0  0  0  0  0  0
   -5.2571  -10.1997   -3.6862 C   0  0  0  0  0  0  0  0  0  0  0  0
   -4.7611  -10.0192   -4.9792 C   0  0  0  0  0  0  0  0  0  0  0  0
   -4.1199   -8.8282   -5.3239 C   0  0  0  0  0  0  0  0  0  0  0  0
   -3.9647   -7.8199   -4.3724 C   0  0  0  0  0  0  0  0  0  0  0  0
    1.6923    2.0642    1.1869 H   0  0  0  0  0  0  0  0  0  0  0  0
    1.8720    2.0804   -0.5904 H   0  0  0  0  0  0  0  0  0  0  0  0
   -0.3380    2.8321   -0.8076 H   0  0  0  0  0  0  0  0  0  0  0  0
   -0.5186    2.8153    0.9694 H   0  0  0  0  0  0  0  0  0  0  0  0
   -3.0330    1.6998   -0.2419 H   0  0  0  0  0  0  0  0  0  0  0  0
   -3.9423   -0.5598   -0.4116 H   0  0  0  0  0  0  0  0  0  0  0  0
    0.1727   -3.4669    0.0650 H   0  0  0  0  0  0  0  0  0  0  0  0
    2.5095   -2.8212    0.2912 H   0  0  0  0  0  0  0  0  0  0  0  0
    3.1905   -0.4095    0.3900 H   0  0  0  0  0  0  0  0  0  0  0  0
   -1.7819   -3.6428   -0.3130 H   0  0  0  0  0  0  0  0  0  0  0  0
   -4.6593   -5.2665   -0.9261 H   0  0  0  0  0  0  0  0  0  0  0  0
   -3.0321   -7.7934   -0.7176 H   0  0  0  0  0  0  0  0  0  0  0  0
   -2.2368   -7.3290   -2.2590 H   0  0  0  0  0  0  0  0  0  0  0  0
   -5.5000   -9.3268   -1.7302 H   0  0  0  0  0  0  0  0  0  0  0  0
   -5.7715  -11.1217   -3.4261 H   0  0  0  0  0  0  0  0  0  0  0  0
   -4.8871  -10.8028   -5.7229 H   0  0  0  0  0  0  0  0  0  0  0  0
   -3.7480   -8.6846   -6.3356 H   0  0  0  0  0  0  0  0  0  0  0  0
   -3.4796   -6.8876   -4.6468 H   0  0  0  0  0  0  0  0  0  0  0  0
  1  2  1  0  0  0  0
  1 11  1  0  0  0  0
  1 27  1  0  0  0  0
  1 28  1  0  0  0  0
  2  3  1  0  0  0  0
  2 29  1  0  0  0  0
  2 30  1  0  0  0  0
  3  4  2  0  0  0  0
  3 12  1  0  0  0  0
  4  5  1  0  0  0  0
  4 31  1  0  0  0  0
  5  6  2  0  0  0  0
  5 32  1  0  0  0  0
  6  7  1  0  0  0  0
  6 13  1  0  0  0  0
  7  8  2  0  0  0  0
  7 12  1  0  0  0  0
  8  9  1  0  0  0  0
  8 33  1  0  0  0  0
  9 10  2  0  0  0  0
  9 34  1  0  0  0  0
 10 11  1  0  0  0  0
 10 35  1  0  0  0  0
 11 12  2  0  0  0  0
 13 14  1  0  0  0  0
 13 36  1  0  0  0  0
 14 15  2  0  0  0  0
 14 16  1  0  0  0  0
 16 17  1  0  0  0  0
 16 37  1  0  0  0  0
 17 18  2  0  0  0  0
 17 19  1  0  0  0  0
 19 20  1  0  0  0  0
 19 38  1  0  0  0  0
 19 39  1  0  0  0  0
 20 21  1  0  0  0  0
 21 22  2  0  0  0  0
 21 26  1  0  0  0  0
 22 23  1  0  0  0  0
 22 40  1  0  0  0  0
 23 24  2  0  0  0  0
 23 41  1  0  0  0  0
 24 25  1  0  0  0  0
 24 42  1  0  0  0  0
 25 26  2  0  0  0  0
 25 43  1  0  0  0  0
 26 44  1  0  0  0  0
M  END
