
 OpenBabel10072619563D

 52 54  0  0  0  0  0  0  0  0999 V2000
    7.6753    1.9509   -3.7260 C   0  0  0  0  0  0  0  0  0  0  0  0
    7.7267    1.4535   -2.2907 C   0  0  0  0  0  0  0  0  0  0  0  0
    7.5890   -0.0668   -2.2421 C   0  0  0  0  0  0  0  0  0  0  0  0
    7.7781   -0.6059   -0.8250 C   0  0  0  0  0  0  0  0  0  0  0  0
    7.6255   -2.0626   -0.8126 N   0  0  0  0  0  0  0  0  0  0  0  0
    6.5297   -2.7895   -0.3904 C   0  0  0  0  0  0  0  0  0  0  0  0
    5.2021   -2.0708    0.3581 S   0  0  0  0  0  0  0  0  0  0  0  0
    6.6276   -4.1745   -0.6406 N   0  0  0  0  0  0  0  0  0  0  0  0
    5.4173   -5.0242   -0.7066 C   0  0  0  0  0  0  0  0  0  0  0  0
    4.6105   -4.8119   -1.9923 C   0  0  0  0  0  0  0  0  0  0  0  0
    5.3970   -5.1519   -3.2522 C   0  0  0  0  0  0  0  0  0  0  0  0
    4.6347   -4.8209   -4.4071 O   0  0  0  0  0  0  0  0  0  0  0  0
    7.9118   -4.8998   -0.8022 C   0  0  0  0  0  0  0  0  0  0  0  0
    8.4738   -5.4202    0.4940 C   0  0  0  0  0  0  0  0  0  0  0  0
    7.9376   -5.2922    1.7214 C   0  0  0  0  0  0  0  0  0  0  0  0
    8.6106   -5.8262    2.9042 C   0  0  0  0  0  0  0  0  0  0  0  0
    8.0305   -5.7155    4.1709 C   0  0  0  0  0  0  0  0  0  0  0  0
    8.7292   -6.2347    5.2398 C   0  0  0  0  0  0  0  0  0  0  0  0
    9.9566   -6.8417    5.0864 C   0  0  0  0  0  0  0  0  0  0  0  0
   10.5557   -6.9711    3.8519 C   0  0  0  0  0  0  0  0  0  0  0  0
    9.8642   -6.4563    2.7534 C   0  0  0  0  0  0  0  0  0  0  0  0
   10.4080   -6.5766    1.4711 N   0  0  0  0  0  0  0  0  0  0  0  0
    9.7847   -6.1317    0.3365 C   0  0  0  0  0  0  0  0  0  0  0  0
   10.2909   -6.3011   -0.7697 O   0  0  0  0  0  0  0  0  0  0  0  0
   10.4602   -7.2899    6.2682 O   0  0  0  0  0  0  0  0  0  0  0  0
    9.3876   -6.9438    7.1707 C   0  0  0  0  0  0  0  0  0  0  0  0
    8.3085   -6.2310    6.5325 O   0  0  0  0  0  0  0  0  0  0  0  0
    7.7340    3.0421   -3.7579 H   0  0  0  0  0  0  0  0  0  0  0  0
    6.7504    1.6435   -4.2232 H   0  0  0  0  0  0  0  0  0  0  0  0
    8.5182    1.5524   -4.2991 H   0  0  0  0  0  0  0  0  0  0  0  0
    6.9249    1.9227   -1.7071 H   0  0  0  0  0  0  0  0  0  0  0  0
    8.6806    1.7604   -1.8452 H   0  0  0  0  0  0  0  0  0  0  0  0
    8.3350   -0.5239   -2.9064 H   0  0  0  0  0  0  0  0  0  0  0  0
    6.6047   -0.3650   -2.6263 H   0  0  0  0  0  0  0  0  0  0  0  0
    7.0849   -0.1208   -0.1337 H   0  0  0  0  0  0  0  0  0  0  0  0
    8.7956   -0.3970   -0.4771 H   0  0  0  0  0  0  0  0  0  0  0  0
    8.2200   -2.5119   -1.4889 H   0  0  0  0  0  0  0  0  0  0  0  0
    4.7734   -4.8223    0.1560 H   0  0  0  0  0  0  0  0  0  0  0  0
    5.7060   -6.0784   -0.6222 H   0  0  0  0  0  0  0  0  0  0  0  0
    4.2427   -3.7814   -2.0664 H   0  0  0  0  0  0  0  0  0  0  0  0
    3.7099   -5.4396   -1.9534 H   0  0  0  0  0  0  0  0  0  0  0  0
    5.6367   -6.2203   -3.2903 H   0  0  0  0  0  0  0  0  0  0  0  0
    6.3317   -4.5843   -3.3064 H   0  0  0  0  0  0  0  0  0  0  0  0
    3.7475   -5.2053   -4.3019 H   0  0  0  0  0  0  0  0  0  0  0  0
    8.6649   -4.2611   -1.2641 H   0  0  0  0  0  0  0  0  0  0  0  0
    7.7456   -5.7333   -1.4947 H   0  0  0  0  0  0  0  0  0  0  0  0
    6.9995   -4.7718    1.8753 H   0  0  0  0  0  0  0  0  0  0  0  0
    7.0620   -5.2509    4.3232 H   0  0  0  0  0  0  0  0  0  0  0  0
   11.5141   -7.4656    3.7480 H   0  0  0  0  0  0  0  0  0  0  0  0
   11.3009   -7.0310    1.3389 H   0  0  0  0  0  0  0  0  0  0  0  0
    8.9859   -7.8664    7.6051 H   0  0  0  0  0  0  0  0  0  0  0  0
    9.7907   -6.3220    7.9773 H   0  0  0  0  0  0  0  0  0  0  0  0
  1  2  1  0  0  0  0
  1 28  1  0  0  0  0
  1 29  1  0  0  0  0
  1 30  1  0  0  0  0
  2  3  1  0  0  0  0
  2 31  1  0  0  0  0
  2 32  1  0  0  0  0
  3  4  1  0  0  0  0
  3 33  1  0  0  0  0
  3 34  1  0  0  0  0
  4  5  1  0  0  0  0
  4 35  1  0  0  0  0
  4 36  1  0  0  0  0
  5  6  1  0  0  0  0
  5 37  1  0  0  0  0
  6  7  2  0  0  0  0
  6  8  1  0  0  0  0
  8  9  1  0  0  0  0
  8 13  1  0  0  0  0
  9 10  1  0  0  0  0
  9 38  1  0  0  0  0
  9 39  1  0  0  0  0
 10 11  1  0  0  0  0
 10 40  1  0  0  0  0
 10 41  1  0  0  0  0
 11 12  1  0  0  0  0
 11 42  1  0  0  0  0
 11 43  1  0  0  0  0
 12 44  1  0  0  0  0
 13 14  1  0  0  0  0
 13 45  1  0  0  0  0
 13 46  1  0  0  0  0
 14 15  2  0  0  0  0
 14 23  1  0  0  0  0
 15 16  1  0  0  0  0
 15 47  1  0  0  0  0
 16 17  2  0  0  0  0
 16 21  1  0  0  0  0
 17 18  1  0  0  0  0
 17 48  1  0  0  0  0
 18 19  2  0  0  0  0
 18 27  1  0  0  0  0
 19 20  1  0  0  0  0
 19 25  1  0  0  0  0
 20 21  2  0  0  0  0
 20 49  1  0  0  0  0
 21 22  1  0  0  0  0
 22 23  1  0  0  0  0
 22 50  1  0  0  0  0
 23 24  2  0  0  0  0
 25 26  1  0  0  0  0
 26 27  1  0  0  0  0
 26 51  1  0  0  0  0
 26 52  1  0  0  0  0
M  END
