
 OpenBabel10072616333D

 60 63  0  0  0  0  0  0  0  0999 V2000
   -1.3901   -2.8327   -1.9520 C   0  0  0  0  0  0  0  0  0  0  0  0
   -0.8246   -1.4367   -1.9341 C   0  0  0  0  0  0  0  0  0  0  0  0
   -1.6738   -0.3663   -2.2773 C   0  0  0  0  0  0  0  0  0  0  0  0
   -1.2046    0.9451   -2.2750 C   0  0  0  0  0  0  0  0  0  0  0  0
    0.1164    1.2006   -1.9340 C   0  0  0  0  0  0  0  0  0  0  0  0
    0.9674    0.1497   -1.5832 C   0  0  0  0  0  0  0  0  0  0  0  0
    0.5131   -1.1751   -1.5617 C   0  0  0  0  0  0  0  0  0  0  0  0
    1.3651   -2.2574   -1.2177 N   0  0  0  0  0  0  0  0  0  0  0  0
    2.6111   -2.1762   -0.6041 C   0  0  0  0  0  0  0  0  0  0  0  0
    3.0730   -1.1629   -0.1032 O   0  0  0  0  0  0  0  0  0  0  0  0
    3.2666   -3.4018   -0.6772 N   0  0  0  0  0  0  0  0  0  0  0  0
    4.5995   -3.6687   -0.2920 C   0  0  0  0  0  0  0  0  0  0  0  0
    5.3795   -2.7946    0.4598 C   0  0  0  0  0  0  0  0  0  0  0  0
    6.7327   -3.0700    0.6890 C   0  0  0  0  0  0  0  0  0  0  0  0
    7.3451   -4.2287    0.1852 C   0  0  0  0  0  0  0  0  0  0  0  0
    6.5335   -5.1387   -0.5041 C   0  0  0  0  0  0  0  0  0  0  0  0
    5.1766   -4.8644   -0.7364 C   0  0  0  0  0  0  0  0  0  0  0  0
    8.8027   -4.4122    0.3241 C   0  0  0  0  0  0  0  0  0  0  0  0
    9.4459   -4.1982    1.5521 C   0  0  0  0  0  0  0  0  0  0  0  0
   10.8431   -4.2024    1.6565 C   0  0  0  0  0  0  0  0  0  0  0  0
   11.6356   -4.4114    0.5293 C   0  0  0  0  0  0  0  0  0  0  0  0
   11.0096   -4.6788   -0.6911 C   0  0  0  0  0  0  0  0  0  0  0  0
    9.6101   -4.6867   -0.7908 C   0  0  0  0  0  0  0  0  0  0  0  0
   13.0386   -4.2627    0.5362 N   0  0  0  0  0  0  0  0  0  0  0  0
   13.8568   -4.1964    1.6550 C   0  0  0  0  0  0  0  0  0  0  0  0
   13.5248   -4.5602    2.7752 O   0  0  0  0  0  0  0  0  0  0  0  0
   15.0816   -3.6338    1.3150 N   0  0  0  0  0  0  0  0  0  0  0  0
   16.2033   -3.4617    2.1620 C   0  0  0  0  0  0  0  0  0  0  0  0
   16.3307   -4.1770    3.3604 C   0  0  0  0  0  0  0  0  0  0  0  0
   17.4423   -4.0082    4.1878 C   0  0  0  0  0  0  0  0  0  0  0  0
   18.4513   -3.1277    3.8225 C   0  0  0  0  0  0  0  0  0  0  0  0
   18.3505   -2.4172    2.6275 C   0  0  0  0  0  0  0  0  0  0  0  0
   17.2293   -2.5644    1.7883 C   0  0  0  0  0  0  0  0  0  0  0  0
   17.1649   -1.7245    0.5397 C   0  0  0  0  0  0  0  0  0  0  0  0
   -2.4197   -2.8521   -2.3296 H   0  0  0  0  0  0  0  0  0  0  0  0
   -1.3975   -3.2446   -0.9363 H   0  0  0  0  0  0  0  0  0  0  0  0
   -0.7901   -3.4756   -2.6070 H   0  0  0  0  0  0  0  0  0  0  0  0
   -2.7107   -0.5494   -2.5525 H   0  0  0  0  0  0  0  0  0  0  0  0
   -1.8695    1.7648   -2.5310 H   0  0  0  0  0  0  0  0  0  0  0  0
    0.4954    2.2191   -1.9373 H   0  0  0  0  0  0  0  0  0  0  0  0
    1.9956    0.3981   -1.3412 H   0  0  0  0  0  0  0  0  0  0  0  0
    0.9635   -3.1796   -1.2629 H   0  0  0  0  0  0  0  0  0  0  0  0
    2.8275   -4.1034   -1.2514 H   0  0  0  0  0  0  0  0  0  0  0  0
    4.9811   -1.8685    0.8622 H   0  0  0  0  0  0  0  0  0  0  0  0
    7.3227   -2.3283    1.2251 H   0  0  0  0  0  0  0  0  0  0  0  0
    6.9590   -6.0608   -0.8935 H   0  0  0  0  0  0  0  0  0  0  0  0
    4.5979   -5.5803   -1.3133 H   0  0  0  0  0  0  0  0  0  0  0  0
    8.8630   -3.9861    2.4466 H   0  0  0  0  0  0  0  0  0  0  0  0
   11.2793   -3.9841    2.6270 H   0  0  0  0  0  0  0  0  0  0  0  0
   11.5931   -4.8548   -1.5901 H   0  0  0  0  0  0  0  0  0  0  0  0
    9.1559   -4.8520   -1.7656 H   0  0  0  0  0  0  0  0  0  0  0  0
   13.5134   -4.3471   -0.3492 H   0  0  0  0  0  0  0  0  0  0  0  0
   15.0749   -3.0971    0.4628 H   0  0  0  0  0  0  0  0  0  0  0  0
   15.5742   -4.8863    3.6831 H   0  0  0  0  0  0  0  0  0  0  0  0
   17.5094   -4.5625    5.1205 H   0  0  0  0  0  0  0  0  0  0  0  0
   19.3156   -2.9923    4.4673 H   0  0  0  0  0  0  0  0  0  0  0  0
   19.1489   -1.7266    2.3632 H   0  0  0  0  0  0  0  0  0  0  0  0
   17.9973   -1.0133    0.4910 H   0  0  0  0  0  0  0  0  0  0  0  0
   16.2424   -1.1346    0.5236 H   0  0  0  0  0  0  0  0  0  0  0  0
   17.2165   -2.3534   -0.3542 H   0  0  0  0  0  0  0  0  0  0  0  0
  1  2  1  0  0  0  0
  1 35  1  0  0  0  0
  1 36  1  0  0  0  0
  1 37  1  0  0  0  0
  2  3  2  0  0  0  0
  2  7  1  0  0  0  0
  3  4  1  0  0  0  0
  3 38  1  0  0  0  0
  4  5  2  0  0  0  0
  4 39  1  0  0  0  0
  5  6  1  0  0  0  0
  5 40  1  0  0  0  0
  6  7  2  0  0  0  0
  6 41  1  0  0  0  0
  7  8  1  0  0  0  0
  8  9  1  0  0  0  0
  8 42  1  0  0  0  0
  9 10  2  0  0  0  0
  9 11  1  0  0  0  0
 11 12  1  0  0  0  0
 11 43  1  0  0  0  0
 12 13  2  0  0  0  0
 12 17  1  0  0  0  0
 13 14  1  0  0  0  0
 13 44  1  0  0  0  0
 14 15  2  0  0  0  0
 14 45  1  0  0  0  0
 15 16  1  0  0  0  0
 15 18  1  0  0  0  0
 16 17  2  0  0  0  0
 16 46  1  0  0  0  0
 17 47  1  0  0  0  0
 18 19  2  0  0  0  0
 18 23  1  0  0  0  0
 19 20  1  0  0  0  0
 19 48  1  0  0  0  0
 20 21  2  0  0  0  0
 20 49  1  0  0  0  0
 21 22  1  0  0  0  0
 21 24  1  0  0  0  0
 22 23  2  0  0  0  0
 22 50  1  0  0  0  0
 23 51  1  0  0  0  0
 24 25  1  0  0  0  0
 24 52  1  0  0  0  0
 25 26  2  0  0  0  0
 25 27  1  0  0  0  0
 27 28  1  0  0  0  0
 27 53  1  0  0  0  0
 28 29  2  0  0  0  0
 28 33  1  0  0  0  0
 29 30  1  0  0  0  0
 29 54  1  0  0  0  0
 30 31  2  0  0  0  0
 30 55  1  0  0  0  0
 31 32  1  0  0  0  0
 31 56  1  0  0  0  0
 32 33  2  0  0  0  0
 32 57  1  0  0  0  0
 33 34  1  0  0  0  0
 34 58  1  0  0  0  0
 34 59  1  0  0  0  0
 34 60  1  0  0  0  0
M  END
