
 OpenBabel10072616333D

 52 54  0  0  0  0  0  0  0  0999 V2000
   -0.1149    0.1481    1.8155 C   0  0  0  0  0  0  0  0  0  0  0  0
    1.2283   -0.1929    1.5031 O   0  0  0  0  0  0  0  0  0  0  0  0
    2.1681   -0.0607    2.4907 C   0  0  0  0  0  0  0  0  0  0  0  0
    3.5032   -0.3162    2.1273 C   0  0  0  0  0  0  0  0  0  0  0  0
    4.5380   -0.1591    3.0495 C   0  0  0  0  0  0  0  0  0  0  0  0
    4.2342    0.2447    4.3493 C   0  0  0  0  0  0  0  0  0  0  0  0
    2.9114    0.4554    4.7449 C   0  0  0  0  0  0  0  0  0  0  0  0
    1.8823    0.3098    3.8107 C   0  0  0  0  0  0  0  0  0  0  0  0
    5.5644    0.4771    5.5063 S   0  0  0  0  0  0  0  0  0  0  0  0
    4.9825    0.8062    6.7884 O   0  0  0  0  0  0  0  0  0  0  0  0
    6.4463   -0.6541    5.3292 O   0  0  0  0  0  0  0  0  0  0  0  0
    6.3429    1.8989    4.9194 N   0  0  0  0  0  0  0  0  0  0  0  0
    5.4125    3.0773    4.8917 C   0  0  0  0  0  0  0  0  0  0  0  0
    5.9906    4.3170    4.2440 C   0  0  0  0  0  0  0  0  0  0  0  0
    6.3842    4.3085    2.8986 C   0  0  0  0  0  0  0  0  0  0  0  0
    6.8953    5.4659    2.3065 C   0  0  0  0  0  0  0  0  0  0  0  0
    7.0088    6.6401    3.0487 C   0  0  0  0  0  0  0  0  0  0  0  0
    6.6132    6.6613    4.3834 C   0  0  0  0  0  0  0  0  0  0  0  0
    6.1078    5.5055    4.9800 C   0  0  0  0  0  0  0  0  0  0  0  0
    7.5781    2.2428    5.7117 C   0  0  0  0  0  0  0  0  0  0  0  0
    8.5405    1.1290    6.0982 C   0  0  0  0  0  0  0  0  0  0  0  0
    8.6836    0.8395    7.2888 O   0  0  0  0  0  0  0  0  0  0  0  0
    9.2612    0.4935    5.0962 N   0  0  0  0  0  0  0  0  0  0  0  0
    9.3623    0.9611    3.7111 C   0  0  0  0  0  0  0  0  0  0  0  0
    9.6042   -0.1993    2.7381 C   0  0  0  0  0  0  0  0  0  0  0  0
   10.7300   -0.9903    3.1450 O   0  0  0  0  0  0  0  0  0  0  0  0
   10.4742   -1.5688    4.4339 C   0  0  0  0  0  0  0  0  0  0  0  0
   10.2787   -0.4829    5.4926 C   0  0  0  0  0  0  0  0  0  0  0  0
    3.9184   -0.8155    0.5238 Cl  0  0  0  0  0  0  0  0  0  0  0  0
   -0.6978    0.0829    0.8921 H   0  0  0  0  0  0  0  0  0  0  0  0
   -0.1957    1.1760    2.1844 H   0  0  0  0  0  0  0  0  0  0  0  0
   -0.5352   -0.5646    2.5312 H   0  0  0  0  0  0  0  0  0  0  0  0
    5.5689   -0.3451    2.7586 H   0  0  0  0  0  0  0  0  0  0  0  0
    2.6712    0.7471    5.7659 H   0  0  0  0  0  0  0  0  0  0  0  0
    0.8676    0.4976    4.1475 H   0  0  0  0  0  0  0  0  0  0  0  0
    5.0916    3.3099    5.9154 H   0  0  0  0  0  0  0  0  0  0  0  0
    4.5091    2.8365    4.3216 H   0  0  0  0  0  0  0  0  0  0  0  0
    6.2895    3.4028    2.3036 H   0  0  0  0  0  0  0  0  0  0  0  0
    7.2009    5.4555    1.2636 H   0  0  0  0  0  0  0  0  0  0  0  0
    7.3978    7.5429    2.5836 H   0  0  0  0  0  0  0  0  0  0  0  0
    6.6962    7.5782    4.9611 H   0  0  0  0  0  0  0  0  0  0  0  0
    5.7998    5.5437    6.0228 H   0  0  0  0  0  0  0  0  0  0  0  0
    7.2652    2.7250    6.6474 H   0  0  0  0  0  0  0  0  0  0  0  0
    8.1635    2.9927    5.1664 H   0  0  0  0  0  0  0  0  0  0  0  0
   10.2163    1.6485    3.6853 H   0  0  0  0  0  0  0  0  0  0  0  0
    8.4712    1.5168    3.4126 H   0  0  0  0  0  0  0  0  0  0  0  0
    9.8081    0.1902    1.7352 H   0  0  0  0  0  0  0  0  0  0  0  0
    8.7210   -0.8459    2.6737 H   0  0  0  0  0  0  0  0  0  0  0  0
   11.3298   -2.2005    4.6911 H   0  0  0  0  0  0  0  0  0  0  0  0
    9.5915   -2.2138    4.3610 H   0  0  0  0  0  0  0  0  0  0  0  0
   11.2108    0.0793    5.6236 H   0  0  0  0  0  0  0  0  0  0  0  0
   10.0250   -0.9449    6.4516 H   0  0  0  0  0  0  0  0  0  0  0  0
  1  2  1  0  0  0  0
  1 30  1  0  0  0  0
  1 31  1  0  0  0  0
  1 32  1  0  0  0  0
  2  3  1  0  0  0  0
  3  4  2  0  0  0  0
  3  8  1  0  0  0  0
  4  5  1  0  0  0  0
  4 29  1  0  0  0  0
  5  6  2  0  0  0  0
  5 33  1  0  0  0  0
  6  7  1  0  0  0  0
  6  9  1  0  0  0  0
  7  8  2  0  0  0  0
  7 34  1  0  0  0  0
  8 35  1  0  0  0  0
  9 10  2  0  0  0  0
  9 11  2  0  0  0  0
  9 12  1  0  0  0  0
 12 13  1  0  0  0  0
 12 20  1  0  0  0  0
 13 14  1  0  0  0  0
 13 36  1  0  0  0  0
 13 37  1  0  0  0  0
 14 15  2  0  0  0  0
 14 19  1  0  0  0  0
 15 16  1  0  0  0  0
 15 38  1  0  0  0  0
 16 17  2  0  0  0  0
 16 39  1  0  0  0  0
 17 18  1  0  0  0  0
 17 40  1  0  0  0  0
 18 19  2  0  0  0  0
 18 41  1  0  0  0  0
 19 42  1  0  0  0  0
 20 21  1  0  0  0  0
 20 43  1  0  0  0  0
 20 44  1  0  0  0  0
 21 22  2  0  0  0  0
 21 23  1  0  0  0  0
 23 24  1  0  0  0  0
 23 28  1  0  0  0  0
 24 25  1  0  0  0  0
 24 45  1  0  0  0  0
 24 46  1  0  0  0  0
 25 26  1  0  0  0  0
 25 47  1  0  0  0  0
 25 48  1  0  0  0  0
 26 27  1  0  0  0  0
 27 28  1  0  0  0  0
 27 49  1  0  0  0  0
 27 50  1  0  0  0  0
 28 51  1  0  0  0  0
 28 52  1  0  0  0  0
M  END
