
 OpenBabel10072620063D

 56 58  0  0  0  0  0  0  0  0999 V2000
    4.8528    3.6438   -7.4122 C   0  0  0  0  0  0  0  0  0  0  0  0
    5.7749    2.5652   -7.3338 O   0  0  0  0  0  0  0  0  0  0  0  0
    5.4311    1.4737   -6.5795 C   0  0  0  0  0  0  0  0  0  0  0  0
    4.1587    1.2506   -6.0415 C   0  0  0  0  0  0  0  0  0  0  0  0
    3.8848    0.0875   -5.3092 C   0  0  0  0  0  0  0  0  0  0  0  0
    4.9049   -0.8480   -5.0947 C   0  0  0  0  0  0  0  0  0  0  0  0
    6.1803   -0.6507   -5.6265 C   0  0  0  0  0  0  0  0  0  0  0  0
    6.4383    0.5194   -6.3597 C   0  0  0  0  0  0  0  0  0  0  0  0
    7.6992    0.6665   -6.8925 O   0  0  0  0  0  0  0  0  0  0  0  0
    8.3989    1.7650   -6.3100 C   0  0  0  0  0  0  0  0  0  0  0  0
    7.2256   -1.5287   -5.4972 O   0  0  0  0  0  0  0  0  0  0  0  0
    7.0715   -2.6038   -4.5818 C   0  0  0  0  0  0  0  0  0  0  0  0
    2.6383   -0.1915   -4.7057 N   0  0  0  0  0  0  0  0  0  0  0  0
    1.4093    0.4003   -4.8392 C   0  0  0  0  0  0  0  0  0  0  0  0
    0.2904    0.0822   -3.6336 S   0  0  0  0  0  0  0  0  0  0  0  0
    1.1846    1.0664   -6.0169 N   0  0  0  0  0  0  0  0  0  0  0  0
    0.2489    2.0761   -6.3229 C   0  0  0  0  0  0  0  0  0  0  0  0
   -0.2755    2.9471   -5.3664 C   0  0  0  0  0  0  0  0  0  0  0  0
   -1.1398    3.9821   -5.7435 C   0  0  0  0  0  0  0  0  0  0  0  0
   -1.4720    4.1505   -7.0907 C   0  0  0  0  0  0  0  0  0  0  0  0
   -0.9759    3.2700   -8.0534 C   0  0  0  0  0  0  0  0  0  0  0  0
   -0.0929    2.2537   -7.6699 C   0  0  0  0  0  0  0  0  0  0  0  0
   -2.5836    5.4616   -7.5606 S   0  0  0  0  0  0  0  0  0  0  0  0
   -3.3690    4.9836   -8.6825 O   0  0  0  0  0  0  0  0  0  0  0  0
   -3.2203    5.9456   -6.3536 O   0  0  0  0  0  0  0  0  0  0  0  0
   -1.5555    6.6872   -8.1219 N   0  0  0  0  0  0  0  0  0  0  0  0
   -0.6192    7.2948   -7.1325 C   0  0  0  0  0  0  0  0  0  0  0  0
    0.0182    8.5588   -7.7279 C   0  0  0  0  0  0  0  0  0  0  0  0
    0.6660    8.2805   -8.9802 O   0  0  0  0  0  0  0  0  0  0  0  0
   -0.2890    7.7820   -9.9300 C   0  0  0  0  0  0  0  0  0  0  0  0
   -0.9007    6.4667   -9.4396 C   0  0  0  0  0  0  0  0  0  0  0  0
    5.3498    4.4643   -7.9399 H   0  0  0  0  0  0  0  0  0  0  0  0
    4.5780    4.0063   -6.4157 H   0  0  0  0  0  0  0  0  0  0  0  0
    3.9693    3.3578   -7.9922 H   0  0  0  0  0  0  0  0  0  0  0  0
    3.3933    2.0021   -6.1698 H   0  0  0  0  0  0  0  0  0  0  0  0
    4.6751   -1.7458   -4.5298 H   0  0  0  0  0  0  0  0  0  0  0  0
    9.4503    1.4753   -6.2101 H   0  0  0  0  0  0  0  0  0  0  0  0
    8.0270    2.0366   -5.3142 H   0  0  0  0  0  0  0  0  0  0  0  0
    8.3478    2.6276   -6.9816 H   0  0  0  0  0  0  0  0  0  0  0  0
    8.0130   -3.1612   -4.5605 H   0  0  0  0  0  0  0  0  0  0  0  0
    6.2874   -3.2932   -4.9093 H   0  0  0  0  0  0  0  0  0  0  0  0
    6.8766   -2.2349   -3.5688 H   0  0  0  0  0  0  0  0  0  0  0  0
    2.6501   -0.8869   -3.9645 H   0  0  0  0  0  0  0  0  0  0  0  0
    1.6473    0.6351   -6.8085 H   0  0  0  0  0  0  0  0  0  0  0  0
   -0.0055    2.8686   -4.3169 H   0  0  0  0  0  0  0  0  0  0  0  0
   -1.5402    4.6447   -4.9810 H   0  0  0  0  0  0  0  0  0  0  0  0
   -1.2697    3.3638   -9.0963 H   0  0  0  0  0  0  0  0  0  0  0  0
    0.2998    1.5863   -8.4339 H   0  0  0  0  0  0  0  0  0  0  0  0
    0.1685    6.5720   -6.8919 H   0  0  0  0  0  0  0  0  0  0  0  0
   -1.1508    7.5662   -6.2149 H   0  0  0  0  0  0  0  0  0  0  0  0
    0.7792    8.9487   -7.0440 H   0  0  0  0  0  0  0  0  0  0  0  0
   -0.7297    9.3456   -7.8814 H   0  0  0  0  0  0  0  0  0  0  0  0
    0.2348    7.6172  -10.8769 H   0  0  0  0  0  0  0  0  0  0  0  0
   -1.0596    8.5435  -10.1006 H   0  0  0  0  0  0  0  0  0  0  0  0
   -0.1101    5.7171   -9.3304 H   0  0  0  0  0  0  0  0  0  0  0  0
   -1.6311    6.1209  -10.1771 H   0  0  0  0  0  0  0  0  0  0  0  0
  1  2  1  0  0  0  0
  1 32  1  0  0  0  0
  1 33  1  0  0  0  0
  1 34  1  0  0  0  0
  2  3  1  0  0  0  0
  3  4  2  0  0  0  0
  3  8  1  0  0  0  0
  4  5  1  0  0  0  0
  4 35  1  0  0  0  0
  5  6  2  0  0  0  0
  5 13  1  0  0  0  0
  6  7  1  0  0  0  0
  6 36  1  0  0  0  0
  7  8  2  0  0  0  0
  7 11  1  0  0  0  0
  8  9  1  0  0  0  0
  9 10  1  0  0  0  0
 10 37  1  0  0  0  0
 10 38  1  0  0  0  0
 10 39  1  0  0  0  0
 11 12  1  0  0  0  0
 12 40  1  0  0  0  0
 12 41  1  0  0  0  0
 12 42  1  0  0  0  0
 13 14  1  0  0  0  0
 13 43  1  0  0  0  0
 14 15  2  0  0  0  0
 14 16  1  0  0  0  0
 16 17  1  0  0  0  0
 16 44  1  0  0  0  0
 17 18  2  0  0  0  0
 17 22  1  0  0  0  0
 18 19  1  0  0  0  0
 18 45  1  0  0  0  0
 19 20  2  0  0  0  0
 19 46  1  0  0  0  0
 20 21  1  0  0  0  0
 20 23  1  0  0  0  0
 21 22  2  0  0  0  0
 21 47  1  0  0  0  0
 22 48  1  0  0  0  0
 23 24  2  0  0  0  0
 23 25  2  0  0  0  0
 23 26  1  0  0  0  0
 26 27  1  0  0  0  0
 26 31  1  0  0  0  0
 27 28  1  0  0  0  0
 27 49  1  0  0  0  0
 27 50  1  0  0  0  0
 28 29  1  0  0  0  0
 28 51  1  0  0  0  0
 28 52  1  0  0  0  0
 29 30  1  0  0  0  0
 30 31  1  0  0  0  0
 30 53  1  0  0  0  0
 30 54  1  0  0  0  0
 31 55  1  0  0  0  0
 31 56  1  0  0  0  0
M  END
