
 OpenBabel10072619523D

 38 40  0  0  0  0  0  0  0  0999 V2000
   -1.4718    0.6045   -0.7811 C   0  0  0  0  0  0  0  0  0  0  0  0
   -0.2021    0.0258   -0.2647 C   0  0  0  0  0  0  0  0  0  0  0  0
    0.2140   -1.1964   -0.5140 N   0  0  0  0  0  0  0  0  0  0  0  0
    1.4286   -1.4342    0.1182 C   0  0  0  0  0  0  0  0  0  0  0  0
    1.9108   -0.3601    0.8423 C   0  0  0  0  0  0  0  0  0  0  0  0
    0.8288    0.9671    0.7341 S   0  0  0  0  0  0  0  0  0  0  0  0
    2.1081   -2.7225   -0.0256 C   0  0  0  0  0  0  0  0  0  0  0  0
    1.6478   -3.6357   -0.9871 C   0  0  0  0  0  0  0  0  0  0  0  0
    2.2824   -4.8671   -1.1746 C   0  0  0  0  0  0  0  0  0  0  0  0
    3.3822   -5.2055   -0.3911 C   0  0  0  0  0  0  0  0  0  0  0  0
    3.8539   -4.3168    0.5710 C   0  0  0  0  0  0  0  0  0  0  0  0
    3.2146   -3.0849    0.7579 C   0  0  0  0  0  0  0  0  0  0  0  0
    4.0653   -6.4292   -0.6356 N   0  0  0  0  0  0  0  0  0  0  0  0
    5.3907   -6.3864   -1.6898 S   0  0  0  0  0  0  0  0  0  0  0  0
    5.5673   -7.7417   -2.1683 O   0  0  0  0  0  0  0  0  0  0  0  0
    5.2623   -5.2776   -2.6081 O   0  0  0  0  0  0  0  0  0  0  0  0
    6.7433   -6.0505   -0.5830 C   0  0  0  0  0  0  0  0  0  0  0  0
    7.2552   -7.0913    0.2002 C   0  0  0  0  0  0  0  0  0  0  0  0
    8.3326   -6.8477    1.0551 C   0  0  0  0  0  0  0  0  0  0  0  0
    8.8970   -5.5639    1.1108 C   0  0  0  0  0  0  0  0  0  0  0  0
    8.3911   -4.5243    0.3153 C   0  0  0  0  0  0  0  0  0  0  0  0
    7.3137   -4.7726   -0.5405 C   0  0  0  0  0  0  0  0  0  0  0  0
   10.0327   -5.3100    2.0082 N   0  3  0  0  0  0  0  0  0  0  0  0
   10.4522   -6.2577    2.6865 O   0  0  0  0  0  0  0  0  0  0  0  0
   10.4976   -4.1616    2.0396 O   0  5  0  0  0  0  0  0  0  0  0  0
   -1.9635   -0.1001   -1.4597 H   0  0  0  0  0  0  0  0  0  0  0  0
   -1.2846    1.5303   -1.3344 H   0  0  0  0  0  0  0  0  0  0  0  0
   -2.1620    0.8190    0.0411 H   0  0  0  0  0  0  0  0  0  0  0  0
    2.8229   -0.2664    1.4120 H   0  0  0  0  0  0  0  0  0  0  0  0
    0.7945   -3.3827   -1.6147 H   0  0  0  0  0  0  0  0  0  0  0  0
    1.9203   -5.5368   -1.9493 H   0  0  0  0  0  0  0  0  0  0  0  0
    4.7079   -4.5729    1.1913 H   0  0  0  0  0  0  0  0  0  0  0  0
    3.6017   -2.4221    1.5260 H   0  0  0  0  0  0  0  0  0  0  0  0
    3.4858   -7.2445   -0.8391 H   0  0  0  0  0  0  0  0  0  0  0  0
    6.8234   -8.0892    0.1438 H   0  0  0  0  0  0  0  0  0  0  0  0
    8.7223   -7.6640    1.6612 H   0  0  0  0  0  0  0  0  0  0  0  0
    8.8270   -3.5268    0.3450 H   0  0  0  0  0  0  0  0  0  0  0  0
    6.9277   -3.9698   -1.1669 H   0  0  0  0  0  0  0  0  0  0  0  0
  1  2  1  0  0  0  0
  1 26  1  0  0  0  0
  1 27  1  0  0  0  0
  1 28  1  0  0  0  0
  2  3  2  0  0  0  0
  2  6  1  0  0  0  0
  3  4  1  0  0  0  0
  4  5  2  0  0  0  0
  4  7  1  0  0  0  0
  5  6  1  0  0  0  0
  5 29  1  0  0  0  0
  7  8  2  0  0  0  0
  7 12  1  0  0  0  0
  8  9  1  0  0  0  0
  8 30  1  0  0  0  0
  9 10  2  0  0  0  0
  9 31  1  0  0  0  0
 10 11  1  0  0  0  0
 10 13  1  0  0  0  0
 11 12  2  0  0  0  0
 11 32  1  0  0  0  0
 12 33  1  0  0  0  0
 13 14  1  0  0  0  0
 13 34  1  0  0  0  0
 14 15  2  0  0  0  0
 14 16  2  0  0  0  0
 14 17  1  0  0  0  0
 17 18  2  0  0  0  0
 17 22  1  0  0  0  0
 18 19  1  0  0  0  0
 18 35  1  0  0  0  0
 19 20  2  0  0  0  0
 19 36  1  0  0  0  0
 20 21  1  0  0  0  0
 20 23  1  0  0  0  0
 21 22  2  0  0  0  0
 21 37  1  0  0  0  0
 22 38  1  0  0  0  0
 23 24  2  0  0  0  0
 23 25  1  0  0  0  0
M  CHG  2  23   1  25  -1
M  END
