
 OpenBabel10072619583D

 80 85  0  0  0  0  0  0  0  0999 V2000
    2.0729    1.1828    0.0602 C   0  0  0  0  0  0  0  0  0  0  0  0
    0.6789    1.1065    0.1417 C   0  0  0  0  0  0  0  0  0  0  0  0
    0.0051   -0.1336    0.1802 C   0  0  0  0  0  0  0  0  0  0  0  0
   -1.4004   -0.2732    0.3257 C   0  0  0  0  0  0  0  0  0  0  0  0
   -2.0295   -1.5327    0.3851 C   0  0  0  0  0  0  0  0  0  0  0  0
   -1.2269   -2.6665    0.2815 C   0  0  0  0  0  0  0  0  0  0  0  0
    0.1655   -2.5648    0.1510 C   0  0  0  0  0  0  0  0  0  0  0  0
    0.7881   -1.3079    0.1070 C   0  0  0  0  0  0  0  0  0  0  0  0
    2.1916   -1.2124    0.0238 C   0  0  0  0  0  0  0  0  0  0  0  0
    2.8419    0.0244    0.0080 C   0  0  0  0  0  0  0  0  0  0  0  0
    4.2450    0.1667    0.0155 N   0  0  0  0  0  0  0  0  0  0  0  0
    5.1741   -0.8238   -0.2630 C   0  0  0  0  0  0  0  0  0  0  0  0
    4.9192   -1.8705   -0.8384 O   0  0  0  0  0  0  0  0  0  0  0  0
    6.4240   -0.4610    0.2279 N   0  0  0  0  0  0  0  0  0  0  0  0
    7.5939   -1.2426    0.1166 C   0  0  0  0  0  0  0  0  0  0  0  0
    7.7817   -2.1902   -0.8922 C   0  0  0  0  0  0  0  0  0  0  0  0
    8.9307   -2.9935   -0.9319 C   0  0  0  0  0  0  0  0  0  0  0  0
    9.1019   -3.9300   -1.9612 C   0  0  0  0  0  0  0  0  0  0  0  0
   10.2296   -4.7588   -1.9782 C   0  0  0  0  0  0  0  0  0  0  0  0
   11.1902   -4.7005   -0.9657 C   0  0  0  0  0  0  0  0  0  0  0  0
   11.0141   -3.7413    0.0519 C   0  0  0  0  0  0  0  0  0  0  0  0
    9.9125   -2.8631    0.0748 C   0  0  0  0  0  0  0  0  0  0  0  0
    9.7369   -1.8662    1.0557 C   0  0  0  0  0  0  0  0  0  0  0  0
    8.6018   -1.0486    1.0638 C   0  0  0  0  0  0  0  0  0  0  0  0
   11.9356   -3.6624    1.0743 O   0  0  0  0  0  0  0  0  0  0  0  0
   12.2412   -5.6405   -0.8855 N   0  0  0  0  0  0  0  0  0  0  0  0
   13.3582   -5.0847   -0.9496 N   0  0  0  0  0  0  0  0  0  0  0  0
   14.3819   -6.0500   -0.9196 C   0  0  0  0  0  0  0  0  0  0  0  0
   15.2647   -6.0805    0.1592 C   0  0  0  0  0  0  0  0  0  0  0  0
   16.3084   -6.9988    0.1659 C   0  0  0  0  0  0  0  0  0  0  0  0
   16.4996   -7.8824   -0.8932 C   0  0  0  0  0  0  0  0  0  0  0  0
   15.6338   -7.8670   -1.9861 C   0  0  0  0  0  0  0  0  0  0  0  0
   14.5845   -6.9469   -1.9815 C   0  0  0  0  0  0  0  0  0  0  0  0
   13.7386   -6.9155   -3.0223 F   0  0  0  0  0  0  0  0  0  0  0  0
   15.8621   -8.7918   -3.1206 C   0  0  0  0  0  0  0  0  0  0  0  0
   16.8397   -9.5187   -3.1918 O   0  0  0  0  0  0  0  0  0  0  0  0
   14.9167   -8.7863   -4.0857 O   0  0  0  0  0  0  0  0  0  0  0  0
   17.5328   -8.7327   -0.8285 F   0  0  0  0  0  0  0  0  0  0  0  0
   17.1432   -7.0198    1.2134 F   0  0  0  0  0  0  0  0  0  0  0  0
   10.4801   -5.8835   -3.3091 S   0  0  0  0  0  0  0  0  0  0  0  0
   11.6676   -5.4748   -4.0285 O   0  0  0  0  0  0  0  0  0  0  0  0
   10.3100   -7.2258   -2.8014 O   0  0  0  0  0  0  0  0  0  0  0  0
    9.2823   -5.6132   -4.3536 O   0  0  0  0  0  0  0  0  0  0  0  0
   -1.9661   -4.2644    0.3369 S   0  0  0  0  0  0  0  0  0  0  0  0
   -1.0275   -5.2187   -0.2193 O   0  0  0  0  0  0  0  0  0  0  0  0
   -2.5269   -4.4552    1.6552 O   0  0  0  0  0  0  0  0  0  0  0  0
   -3.1710   -4.2420   -0.7318 O   0  0  0  0  0  0  0  0  0  0  0  0
   -3.4108   -1.6152    0.6407 N   0  0  0  0  0  0  0  0  0  0  0  0
   -4.0616   -1.4672   -0.4112 N   0  0  0  0  0  0  0  0  0  0  0  0
   -5.4554   -1.4729   -0.1968 C   0  0  0  0  0  0  0  0  0  0  0  0
   -6.2455   -1.0079   -1.2512 C   0  0  0  0  0  0  0  0  0  0  0  0
   -7.6281   -0.9908   -1.1330 C   0  0  0  0  0  0  0  0  0  0  0  0
   -8.2546   -1.4233    0.0296 C   0  0  0  0  0  0  0  0  0  0  0  0
   -7.4976   -1.8897    1.1053 C   0  0  0  0  0  0  0  0  0  0  0  0
   -6.1053   -1.9148    0.9756 C   0  0  0  0  0  0  0  0  0  0  0  0
   -5.3786   -2.3833    2.0056 F   0  0  0  0  0  0  0  0  0  0  0  0
   -8.1914   -2.3442    2.3362 C   0  0  0  0  0  0  0  0  0  0  0  0
   -9.4071   -2.3168    2.4543 O   0  0  0  0  0  0  0  0  0  0  0  0
   -7.4018   -2.7903    3.3374 O   0  0  0  0  0  0  0  0  0  0  0  0
   -9.5924   -1.3813    0.0796 F   0  0  0  0  0  0  0  0  0  0  0  0
   -8.3625   -0.5570   -2.1666 F   0  0  0  0  0  0  0  0  0  0  0  0
   -2.2271    0.8228    0.4502 O   0  0  0  0  0  0  0  0  0  0  0  0
    2.5294    2.1687    0.0490 H   0  0  0  0  0  0  0  0  0  0  0  0
    0.1309    2.0419    0.1957 H   0  0  0  0  0  0  0  0  0  0  0  0
    0.7739   -3.4696    0.1057 H   0  0  0  0  0  0  0  0  0  0  0  0
    2.7785   -2.1266    0.0140 H   0  0  0  0  0  0  0  0  0  0  0  0
    4.6127    1.1048    0.0865 H   0  0  0  0  0  0  0  0  0  0  0  0
    6.4038    0.1859    1.0026 H   0  0  0  0  0  0  0  0  0  0  0  0
    7.0307   -2.3113   -1.6705 H   0  0  0  0  0  0  0  0  0  0  0  0
    8.3474   -4.0164   -2.7424 H   0  0  0  0  0  0  0  0  0  0  0  0
   10.4914   -1.7309    1.8298 H   0  0  0  0  0  0  0  0  0  0  0  0
    8.5146   -0.2879    1.8367 H   0  0  0  0  0  0  0  0  0  0  0  0
   12.5870   -4.3653    0.8944 H   0  0  0  0  0  0  0  0  0  0  0  0
   15.1513   -5.3971    0.9944 H   0  0  0  0  0  0  0  0  0  0  0  0
   14.1623   -8.1684   -3.9794 H   0  0  0  0  0  0  0  0  0  0  0  0
    9.6892   -5.5754   -5.2473 H   0  0  0  0  0  0  0  0  0  0  0  0
   -3.0688   -5.0331   -1.3049 H   0  0  0  0  0  0  0  0  0  0  0  0
   -5.7855   -0.6590   -2.1715 H   0  0  0  0  0  0  0  0  0  0  0  0
   -6.4347   -2.8046    3.1757 H   0  0  0  0  0  0  0  0  0  0  0  0
   -1.8008    1.6142    0.0919 H   0  0  0  0  0  0  0  0  0  0  0  0
  1  2  2  0  0  0  0
  1 10  1  0  0  0  0
  1 63  1  0  0  0  0
  2  3  1  0  0  0  0
  2 64  1  0  0  0  0
  3  4  2  0  0  0  0
  3  8  1  0  0  0  0
  4  5  1  0  0  0  0
  4 62  1  0  0  0  0
  5  6  2  0  0  0  0
  5 48  1  0  0  0  0
  6  7  1  0  0  0  0
  6 44  1  0  0  0  0
  7  8  2  0  0  0  0
  7 65  1  0  0  0  0
  8  9  1  0  0  0  0
  9 10  2  0  0  0  0
  9 66  1  0  0  0  0
 10 11  1  0  0  0  0
 11 12  1  0  0  0  0
 11 67  1  0  0  0  0
 12 13  2  0  0  0  0
 12 14  1  0  0  0  0
 14 15  1  0  0  0  0
 14 68  1  0  0  0  0
 15 16  2  0  0  0  0
 15 24  1  0  0  0  0
 16 17  1  0  0  0  0
 16 69  1  0  0  0  0
 17 18  2  0  0  0  0
 17 22  1  0  0  0  0
 18 19  1  0  0  0  0
 18 70  1  0  0  0  0
 19 20  2  0  0  0  0
 19 40  1  0  0  0  0
 20 21  1  0  0  0  0
 20 26  1  0  0  0  0
 21 22  2  0  0  0  0
 21 25  1  0  0  0  0
 22 23  1  0  0  0  0
 23 24  2  0  0  0  0
 23 71  1  0  0  0  0
 24 72  1  0  0  0  0
 25 73  1  0  0  0  0
 26 27  2  3  0  0  0
 27 28  1  0  0  0  0
 28 29  2  0  0  0  0
 28 33  1  0  0  0  0
 29 30  1  0  0  0  0
 29 74  1  0  0  0  0
 30 31  2  0  0  0  0
 30 39  1  0  0  0  0
 31 32  1  0  0  0  0
 31 38  1  0  0  0  0
 32 33  2  0  0  0  0
 32 35  1  0  0  0  0
 33 34  1  0  0  0  0
 35 36  2  0  0  0  0
 35 37  1  0  0  0  0
 37 75  1  0  0  0  0
 40 41  2  0  0  0  0
 40 42  2  0  0  0  0
 40 43  1  0  0  0  0
 43 76  1  0  0  0  0
 44 45  2  0  0  0  0
 44 46  2  0  0  0  0
 44 47  1  0  0  0  0
 47 77  1  0  0  0  0
 48 49  2  3  0  0  0
 49 50  1  0  0  0  0
 50 51  2  0  0  0  0
 50 55  1  0  0  0  0
 51 52  1  0  0  0  0
 51 78  1  0  0  0  0
 52 53  2  0  0  0  0
 52 61  1  0  0  0  0
 53 54  1  0  0  0  0
 53 60  1  0  0  0  0
 54 55  2  0  0  0  0
 54 57  1  0  0  0  0
 55 56  1  0  0  0  0
 57 58  2  0  0  0  0
 57 59  1  0  0  0  0
 59 79  1  0  0  0  0
 62 80  1  0  0  0  0
M  END
