
 OpenBabel10072619533D

 48 51  0  0  1  0  0  0  0  0999 V2000
    2.4321    0.0540   -0.1427 C   0  0  0  0  0  0  0  0  0  0  0  0
    0.9339    0.0392   -0.0731 C   0  0  0  0  0  0  0  0  0  0  0  0
    0.2076    1.2191   -0.2501 C   0  0  0  0  0  0  0  0  0  0  0  0
   -1.1906    1.2076   -0.2022 C   0  0  0  0  0  0  0  0  0  0  0  0
   -1.8971    0.0171    0.0217 C   0  0  0  0  0  0  0  0  0  0  0  0
   -1.1597   -1.1691    0.1544 C   0  0  0  0  0  0  0  0  0  0  0  0
    0.2388   -1.1588    0.1077 C   0  0  0  0  0  0  0  0  0  0  0  0
   -3.3342    0.0145    0.1206 N   0  0  0  0  0  0  0  0  0  0  0  0
   -4.0202   -0.7432    1.0515 C   0  0  0  0  0  0  0  0  0  0  0  0
   -5.3486   -0.7615    1.1650 C   0  0  0  0  0  0  0  0  0  0  0  0
   -6.1599   -0.0093    0.2303 C   0  0  0  0  0  0  0  0  0  0  0  0
   -7.3793   -0.0695    0.2368 O   0  0  0  0  0  0  0  0  0  0  0  0
   -5.4471    0.7758   -0.6276 N   0  0  0  0  0  0  0  0  0  0  0  0
   -4.0751    0.8275   -0.7688 C   0  0  0  0  0  0  0  0  0  0  0  0
   -3.6181    1.5306   -1.6687 O   0  0  0  0  0  0  0  0  0  0  0  0
   -5.8407   -1.6100    2.2980 C   0  0  3  0  0  0  0  0  0  0  0  0
   -4.4902   -2.1196    2.8008 C   0  0  0  0  0  0  0  0  0  0  0  0
   -4.2893   -2.8877    3.7273 O   0  0  0  0  0  0  0  0  0  0  0  0
   -3.4988   -1.5281    2.0296 N   0  0  0  0  0  0  0  0  0  0  0  0
   -6.5966   -2.8603    1.8301 C   0  0  0  0  0  0  0  0  0  0  0  0
   -5.8959   -3.5717    0.9163 F   0  0  0  0  0  0  0  0  0  0  0  0
   -6.8864   -3.6859    2.8638 F   0  0  0  0  0  0  0  0  0  0  0  0
   -7.7842   -2.5468    1.2616 F   0  0  0  0  0  0  0  0  0  0  0  0
   -6.5875   -0.8204    3.3269 N   0  0  0  0  0  0  0  0  0  0  0  0
   -5.8970    0.4223    4.2050 S   0  0  0  0  0  0  0  0  0  0  0  0
   -6.7504    0.6268    5.3518 O   0  0  0  0  0  0  0  0  0  0  0  0
   -4.4819    0.1753    4.3317 O   0  0  0  0  0  0  0  0  0  0  0  0
   -6.1130    1.8276    3.1418 C   0  0  0  0  0  0  0  0  0  0  0  0
   -7.3989    2.1693    2.7121 C   0  0  0  0  0  0  0  0  0  0  0  0
   -7.5661    3.2431    1.8361 C   0  0  0  0  0  0  0  0  0  0  0  0
   -6.4546    3.9702    1.4081 C   0  0  0  0  0  0  0  0  0  0  0  0
   -5.1735    3.6376    1.8516 C   0  0  0  0  0  0  0  0  0  0  0  0
   -4.9975    2.5623    2.7240 C   0  0  0  0  0  0  0  0  0  0  0  0
   -6.6628    5.2835    0.3187 Cl  0  0  0  0  0  0  0  0  0  0  0  0
    2.8304    0.9652    0.3163 H   0  0  0  0  0  0  0  0  0  0  0  0
    2.7606    0.0072   -1.1850 H   0  0  0  0  0  0  0  0  0  0  0  0
    2.8597   -0.7961    0.3995 H   0  0  0  0  0  0  0  0  0  0  0  0
    0.7236    2.1610   -0.4262 H   0  0  0  0  0  0  0  0  0  0  0  0
   -1.7089    2.1567   -0.3173 H   0  0  0  0  0  0  0  0  0  0  0  0
   -1.6565   -2.1318    0.2451 H   0  0  0  0  0  0  0  0  0  0  0  0
    0.7810   -2.0976    0.2011 H   0  0  0  0  0  0  0  0  0  0  0  0
   -5.9736    1.3258   -1.2918 H   0  0  0  0  0  0  0  0  0  0  0  0
   -2.5175   -1.6360    2.2509 H   0  0  0  0  0  0  0  0  0  0  0  0
   -7.2724   -1.3420    3.8818 H   0  0  0  0  0  0  0  0  0  0  0  0
   -8.2662    1.5995    3.0393 H   0  0  0  0  0  0  0  0  0  0  0  0
   -8.5629    3.5041    1.4887 H   0  0  0  0  0  0  0  0  0  0  0  0
   -4.3112    4.2133    1.5235 H   0  0  0  0  0  0  0  0  0  0  0  0
   -3.9968    2.3087    3.0696 H   0  0  0  0  0  0  0  0  0  0  0  0
  1  2  1  0  0  0  0
  1 35  1  0  0  0  0
  1 36  1  0  0  0  0
  1 37  1  0  0  0  0
  2  3  2  0  0  0  0
  2  7  1  0  0  0  0
  3  4  1  0  0  0  0
  3 38  1  0  0  0  0
  4  5  2  0  0  0  0
  4 39  1  0  0  0  0
  5  6  1  0  0  0  0
  5  8  1  0  0  0  0
  6  7  2  0  0  0  0
  6 40  1  0  0  0  0
  7 41  1  0  0  0  0
  8  9  1  0  0  0  0
  8 14  1  0  0  0  0
  9 10  2  0  0  0  0
  9 19  1  0  0  0  0
 10 11  1  0  0  0  0
 10 16  1  0  0  0  0
 11 12  2  0  0  0  0
 11 13  1  0  0  0  0
 13 14  1  0  0  0  0
 13 42  1  0  0  0  0
 14 15  2  0  0  0  0
 16 17  1  0  0  0  0
 16 20  1  0  0  0  0
 16 24  1  0  0  0  0
 17 18  2  0  0  0  0
 17 19  1  0  0  0  0
 19 43  1  0  0  0  0
 20 21  1  0  0  0  0
 20 22  1  0  0  0  0
 20 23  1  0  0  0  0
 24 25  1  0  0  0  0
 24 44  1  0  0  0  0
 25 26  2  0  0  0  0
 25 27  2  0  0  0  0
 25 28  1  0  0  0  0
 28 29  2  0  0  0  0
 28 33  1  0  0  0  0
 29 30  1  0  0  0  0
 29 45  1  0  0  0  0
 30 31  2  0  0  0  0
 30 46  1  0  0  0  0
 31 32  1  0  0  0  0
 31 34  1  0  0  0  0
 32 33  2  0  0  0  0
 32 47  1  0  0  0  0
 33 48  1  0  0  0  0
M  END
