
 OpenBabel10072616333D

 43 45  0  0  0  0  0  0  0  0999 V2000
   -0.8589    0.8036   -4.7450 C   0  0  0  0  0  0  0  0  0  0  0  0
   -1.2985    1.8112   -3.8939 C   0  0  0  0  0  0  0  0  0  0  0  0
   -1.9143    1.4834   -2.6834 C   0  0  0  0  0  0  0  0  0  0  0  0
   -2.0967    0.1465   -2.2978 C   0  0  0  0  0  0  0  0  0  0  0  0
   -1.6515   -0.8533   -3.1677 C   0  0  0  0  0  0  0  0  0  0  0  0
   -1.0346   -0.5283   -4.3815 C   0  0  0  0  0  0  0  0  0  0  0  0
   -2.7643   -0.1204   -1.0880 N   0  0  0  0  0  0  0  0  0  0  0  0
   -3.6598   -1.1266   -0.6874 C   0  0  0  0  0  0  0  0  0  0  0  0
   -4.0077   -1.2239    0.6681 C   0  0  0  0  0  0  0  0  0  0  0  0
   -4.9127   -2.1952    1.1295 C   0  0  0  0  0  0  0  0  0  0  0  0
   -5.4653   -3.1243    0.2490 C   0  0  0  0  0  0  0  0  0  0  0  0
   -5.1268   -3.0306   -1.1033 C   0  0  0  0  0  0  0  0  0  0  0  0
   -4.2369   -2.0469   -1.5619 C   0  0  0  0  0  0  0  0  0  0  0  0
   -6.4150   -4.1097    0.5949 N   0  0  0  0  0  0  0  0  0  0  0  0
   -6.9180   -4.5235    1.7941 C   0  0  0  0  0  0  0  0  0  0  0  0
   -8.3708   -5.3530    1.7674 S   0  0  0  0  0  0  0  0  0  0  0  0
   -6.1769   -4.2480    2.9002 N   0  0  0  0  0  0  0  0  0  0  0  0
   -6.5778   -4.3691    4.2879 C   0  0  0  0  0  0  0  0  0  0  0  0
   -5.8394   -5.4829    4.9811 C   0  0  0  0  0  0  0  0  0  0  0  0
   -4.6113   -5.2364    5.6142 C   0  0  0  0  0  0  0  0  0  0  0  0
   -3.9369   -6.2670    6.2726 C   0  0  0  0  0  0  0  0  0  0  0  0
   -4.4797   -7.5504    6.2926 C   0  0  0  0  0  0  0  0  0  0  0  0
   -5.6900   -7.8133    5.6552 C   0  0  0  0  0  0  0  0  0  0  0  0
   -6.3640   -6.7836    4.9949 C   0  0  0  0  0  0  0  0  0  0  0  0
   -3.6551   -8.8149    7.1186 Cl  0  0  0  0  0  0  0  0  0  0  0  0
   -0.3794    1.0557   -5.6878 H   0  0  0  0  0  0  0  0  0  0  0  0
   -1.1699    2.8537   -4.1709 H   0  0  0  0  0  0  0  0  0  0  0  0
   -2.2676    2.2887   -2.0435 H   0  0  0  0  0  0  0  0  0  0  0  0
   -1.7428   -1.9009   -2.8957 H   0  0  0  0  0  0  0  0  0  0  0  0
   -0.6858   -1.3194   -5.0393 H   0  0  0  0  0  0  0  0  0  0  0  0
   -2.6537    0.6209   -0.4044 H   0  0  0  0  0  0  0  0  0  0  0  0
   -3.6036   -0.5156    1.3880 H   0  0  0  0  0  0  0  0  0  0  0  0
   -5.1980   -2.1483    2.1743 H   0  0  0  0  0  0  0  0  0  0  0  0
   -5.5590   -3.7128   -1.8319 H   0  0  0  0  0  0  0  0  0  0  0  0
   -4.0458   -1.9913   -2.6284 H   0  0  0  0  0  0  0  0  0  0  0  0
   -6.9233   -4.5087   -0.1883 H   0  0  0  0  0  0  0  0  0  0  0  0
   -5.1827   -4.1741    2.7329 H   0  0  0  0  0  0  0  0  0  0  0  0
   -7.6610   -4.4864    4.3919 H   0  0  0  0  0  0  0  0  0  0  0  0
   -6.3290   -3.4118    4.7602 H   0  0  0  0  0  0  0  0  0  0  0  0
   -4.1751   -4.2393    5.6022 H   0  0  0  0  0  0  0  0  0  0  0  0
   -2.9900   -6.0637    6.7656 H   0  0  0  0  0  0  0  0  0  0  0  0
   -6.1128   -8.8144    5.6633 H   0  0  0  0  0  0  0  0  0  0  0  0
   -7.3040   -7.0012    4.4903 H   0  0  0  0  0  0  0  0  0  0  0  0
  1  2  2  0  0  0  0
  1  6  1  0  0  0  0
  1 26  1  0  0  0  0
  2  3  1  0  0  0  0
  2 27  1  0  0  0  0
  3  4  2  0  0  0  0
  3 28  1  0  0  0  0
  4  5  1  0  0  0  0
  4  7  1  0  0  0  0
  5  6  2  0  0  0  0
  5 29  1  0  0  0  0
  6 30  1  0  0  0  0
  7  8  1  0  0  0  0
  7 31  1  0  0  0  0
  8  9  2  0  0  0  0
  8 13  1  0  0  0  0
  9 10  1  0  0  0  0
  9 32  1  0  0  0  0
 10 11  2  0  0  0  0
 10 33  1  0  0  0  0
 11 12  1  0  0  0  0
 11 14  1  0  0  0  0
 12 13  2  0  0  0  0
 12 34  1  0  0  0  0
 13 35  1  0  0  0  0
 14 15  1  0  0  0  0
 14 36  1  0  0  0  0
 15 16  2  0  0  0  0
 15 17  1  0  0  0  0
 17 18  1  0  0  0  0
 17 37  1  0  0  0  0
 18 19  1  0  0  0  0
 18 38  1  0  0  0  0
 18 39  1  0  0  0  0
 19 20  2  0  0  0  0
 19 24  1  0  0  0  0
 20 21  1  0  0  0  0
 20 40  1  0  0  0  0
 21 22  2  0  0  0  0
 21 41  1  0  0  0  0
 22 23  1  0  0  0  0
 22 25  1  0  0  0  0
 23 24  2  0  0  0  0
 23 42  1  0  0  0  0
 24 43  1  0  0  0  0
M  END
