
 OpenBabel10072619573D

 54 57  0  0  1  0  0  0  0  0999 V2000
   -2.6958   -5.7702    0.1178 C   0  0  0  0  0  0  0  0  0  0  0  0
   -3.0361   -4.3103    0.0981 C   0  0  0  0  0  0  0  0  0  0  0  0
   -4.3662   -3.8801    0.1186 C   0  0  0  0  0  0  0  0  0  0  0  0
   -4.6746   -2.5142    0.1232 C   0  0  0  0  0  0  0  0  0  0  0  0
   -3.6599   -1.5583    0.1042 C   0  0  0  0  0  0  0  0  0  0  0  0
   -2.3277   -1.9897    0.0967 C   0  0  0  0  0  0  0  0  0  0  0  0
   -2.0177   -3.3531    0.0954 C   0  0  0  0  0  0  0  0  0  0  0  0
   -3.8875   -0.1674    0.1059 N   0  0  0  0  0  0  0  0  0  0  0  0
   -5.0928    0.4968   -0.0019 C   0  0  0  0  0  0  0  0  0  0  0  0
   -6.1916   -0.0108   -0.1771 O   0  0  0  0  0  0  0  0  0  0  0  0
   -4.8873    1.8617    0.0945 N   0  0  0  0  0  0  0  0  0  0  0  0
   -5.9546    2.8698    0.0095 C   0  0  3  0  0  0  0  0  0  0  0  0
   -6.9404    2.7564    1.1947 C   0  0  0  0  0  0  0  0  0  0  0  0
   -8.0120    3.8685    1.1284 C   0  0  3  0  0  0  0  0  0  0  0  0
   -8.7756    3.7446   -0.2097 C   0  0  0  0  0  0  0  0  0  0  0  0
   -7.8120    3.8862   -1.4098 C   0  0  3  0  0  0  0  0  0  0  0  0
   -6.7403    2.7762   -1.3207 C   0  0  0  0  0  0  0  0  0  0  0  0
   -7.1171    5.2620   -1.3296 C   0  0  0  0  0  0  0  0  0  0  0  0
   -6.3323    5.3995   -0.0080 C   0  0  3  0  0  0  0  0  0  0  0  0
   -7.3122    5.2447    1.1749 C   0  0  0  0  0  0  0  0  0  0  0  0
   -5.2860    4.2686    0.0666 C   0  0  0  0  0  0  0  0  0  0  0  0
   -5.6396    6.7649    0.0532 C   0  0  0  0  0  0  0  0  0  0  0  0
   -8.5864    3.7633   -2.7264 C   0  0  0  0  0  0  0  0  0  0  0  0
   -8.9832    3.7331    2.3056 C   0  0  0  0  0  0  0  0  0  0  0  0
   -3.5822   -6.3918   -0.0434 H   0  0  0  0  0  0  0  0  0  0  0  0
   -2.2599   -6.0415    1.0844 H   0  0  0  0  0  0  0  0  0  0  0  0
   -1.9808   -6.0048   -0.6772 H   0  0  0  0  0  0  0  0  0  0  0  0
   -5.1806   -4.6012    0.1315 H   0  0  0  0  0  0  0  0  0  0  0  0
   -5.7220   -2.2305    0.1425 H   0  0  0  0  0  0  0  0  0  0  0  0
   -1.5103   -1.2738    0.0934 H   0  0  0  0  0  0  0  0  0  0  0  0
   -0.9751   -3.6641    0.0912 H   0  0  0  0  0  0  0  0  0  0  0  0
   -3.0696    0.4169    0.0392 H   0  0  0  0  0  0  0  0  0  0  0  0
   -4.1206    2.1039    0.7034 H   0  0  0  0  0  0  0  0  0  0  0  0
   -6.3899    2.8193    2.1433 H   0  0  0  0  0  0  0  0  0  0  0  0
   -7.4308    1.7747    1.1945 H   0  0  0  0  0  0  0  0  0  0  0  0
   -9.5560    4.5154   -0.2660 H   0  0  0  0  0  0  0  0  0  0  0  0
   -9.2906    2.7757   -0.2570 H   0  0  0  0  0  0  0  0  0  0  0  0
   -6.0456    2.8502   -2.1684 H   0  0  0  0  0  0  0  0  0  0  0  0
   -7.2313    1.8006   -1.4165 H   0  0  0  0  0  0  0  0  0  0  0  0
   -7.8637    6.0640   -1.4067 H   0  0  0  0  0  0  0  0  0  0  0  0
   -6.4377    5.3882   -2.1832 H   0  0  0  0  0  0  0  0  0  0  0  0
   -8.0619    6.0470    1.1464 H   0  0  0  0  0  0  0  0  0  0  0  0
   -6.7733    5.3585    2.1252 H   0  0  0  0  0  0  0  0  0  0  0  0
   -4.7012    4.3634    0.9923 H   0  0  0  0  0  0  0  0  0  0  0  0
   -4.5640    4.3682   -0.7561 H   0  0  0  0  0  0  0  0  0  0  0  0
   -6.3685    7.5808   -0.0012 H   0  0  0  0  0  0  0  0  0  0  0  0
   -4.9369    6.8896   -0.7781 H   0  0  0  0  0  0  0  0  0  0  0  0
   -5.0766    6.8827    0.9856 H   0  0  0  0  0  0  0  0  0  0  0  0
   -9.0915    2.7939   -2.7993 H   0  0  0  0  0  0  0  0  0  0  0  0
   -7.9175    3.8554   -3.5891 H   0  0  0  0  0  0  0  0  0  0  0  0
   -9.3497    4.5443   -2.8115 H   0  0  0  0  0  0  0  0  0  0  0  0
   -9.4921    2.7633    2.2895 H   0  0  0  0  0  0  0  0  0  0  0  0
   -9.7513    4.5134    2.2767 H   0  0  0  0  0  0  0  0  0  0  0  0
   -8.4582    3.8176    3.2634 H   0  0  0  0  0  0  0  0  0  0  0  0
  1  2  1  0  0  0  0
  1 25  1  0  0  0  0
  1 26  1  0  0  0  0
  1 27  1  0  0  0  0
  2  3  2  0  0  0  0
  2  7  1  0  0  0  0
  3  4  1  0  0  0  0
  3 28  1  0  0  0  0
  4  5  2  0  0  0  0
  4 29  1  0  0  0  0
  5  6  1  0  0  0  0
  5  8  1  0  0  0  0
  6  7  2  0  0  0  0
  6 30  1  0  0  0  0
  7 31  1  0  0  0  0
  8  9  1  0  0  0  0
  8 32  1  0  0  0  0
  9 10  2  0  0  0  0
  9 11  1  0  0  0  0
 11 12  1  0  0  0  0
 11 33  1  0  0  0  0
 12 13  1  0  0  0  0
 12 17  1  0  0  0  0
 12 21  1  0  0  0  0
 13 14  1  0  0  0  0
 13 34  1  0  0  0  0
 13 35  1  0  0  0  0
 14 15  1  0  0  0  0
 14 20  1  0  0  0  0
 14 24  1  0  0  0  0
 15 16  1  0  0  0  0
 15 36  1  0  0  0  0
 15 37  1  0  0  0  0
 16 17  1  0  0  0  0
 16 18  1  0  0  0  0
 16 23  1  0  0  0  0
 17 38  1  0  0  0  0
 17 39  1  0  0  0  0
 18 19  1  0  0  0  0
 18 40  1  0  0  0  0
 18 41  1  0  0  0  0
 19 20  1  0  0  0  0
 19 21  1  0  0  0  0
 19 22  1  0  0  0  0
 20 42  1  0  0  0  0
 20 43  1  0  0  0  0
 21 44  1  0  0  0  0
 21 45  1  0  0  0  0
 22 46  1  0  0  0  0
 22 47  1  0  0  0  0
 22 48  1  0  0  0  0
 23 49  1  0  0  0  0
 23 50  1  0  0  0  0
 23 51  1  0  0  0  0
 24 52  1  0  0  0  0
 24 53  1  0  0  0  0
 24 54  1  0  0  0  0
M  END
