
 OpenBabel10072619433D

 21 21  0  0  0  0  0  0  0  0999 V2000
    2.2207    0.0941   -0.0922 C   0  0  0  0  0  0  0  0  0  0  0  0
    1.4010    1.2209    0.0031 C   0  0  0  0  0  0  0  0  0  0  0  0
    0.0349    1.0671    0.2558 C   0  0  0  0  0  0  0  0  0  0  0  0
   -0.5078   -0.2071    0.4676 C   0  0  0  0  0  0  0  0  0  0  0  0
    0.3049   -1.3348    0.3725 C   0  0  0  0  0  0  0  0  0  0  0  0
    1.6621   -1.1777    0.0734 C   0  0  0  0  0  0  0  0  0  0  0  0
    2.6749   -2.6214   -0.0603 S   0  0  0  0  0  0  0  0  0  0  0  0
    4.0540   -2.2254   -0.2208 O   0  0  0  0  0  0  0  0  0  0  0  0
    2.2472   -3.5805    0.9301 O   0  0  0  0  0  0  0  0  0  0  0  0
    2.1964   -3.2316   -1.5483 N   0  0  0  0  0  0  0  0  0  0  0  0
   -2.1760   -0.4200    0.8481 Cl  0  0  0  0  0  0  0  0  0  0  0  0
   -0.7295    2.1950    0.3602 O   0  0  0  0  0  0  0  0  0  0  0  0
   -1.4177    2.4917   -0.8539 C   0  0  0  0  0  0  0  0  0  0  0  0
   -1.2664    1.5430   -1.8057 F   0  0  0  0  0  0  0  0  0  0  0  0
   -2.7336    2.6399   -0.5946 F   0  0  0  0  0  0  0  0  0  0  0  0
   -0.9477    3.6601   -1.3441 F   0  0  0  0  0  0  0  0  0  0  0  0
    3.2835    0.2146   -0.2958 H   0  0  0  0  0  0  0  0  0  0  0  0
    1.8292    2.2131   -0.1241 H   0  0  0  0  0  0  0  0  0  0  0  0
   -0.1115   -2.3276    0.5279 H   0  0  0  0  0  0  0  0  0  0  0  0
    2.9849   -3.2330   -2.1965 H   0  0  0  0  0  0  0  0  0  0  0  0
    1.7635   -4.1484   -1.4285 H   0  0  0  0  0  0  0  0  0  0  0  0
  1  2  2  0  0  0  0
  1  6  1  0  0  0  0
  1 17  1  0  0  0  0
  2  3  1  0  0  0  0
  2 18  1  0  0  0  0
  3  4  2  0  0  0  0
  3 12  1  0  0  0  0
  4  5  1  0  0  0  0
  4 11  1  0  0  0  0
  5  6  2  0  0  0  0
  5 19  1  0  0  0  0
  6  7  1  0  0  0  0
  7  8  2  0  0  0  0
  7  9  2  0  0  0  0
  7 10  1  0  0  0  0
 10 20  1  0  0  0  0
 10 21  1  0  0  0  0
 12 13  1  0  0  0  0
 13 14  1  0  0  0  0
 13 15  1  0  0  0  0
 13 16  1  0  0  0  0
M  END
