
 OpenBabel10072619513D

 40 43  0  0  0  0  0  0  0  0999 V2000
    3.6140    0.6526   -0.1380 C   0  0  0  0  0  0  0  0  0  0  0  0
    2.9725    1.8711    0.0851 C   0  0  0  0  0  0  0  0  0  0  0  0
    1.5787    1.9528    0.0104 C   0  0  0  0  0  0  0  0  0  0  0  0
    0.8237    0.8064   -0.2867 C   0  0  0  0  0  0  0  0  0  0  0  0
    1.4638   -0.4024   -0.5341 C   0  0  0  0  0  0  0  0  0  0  0  0
    2.8629   -0.4811   -0.4524 C   0  0  0  0  0  0  0  0  0  0  0  0
    0.6919   -1.5968   -0.9278 C   0  0  0  0  0  0  0  0  0  0  0  0
    1.2988   -2.5454   -1.4186 O   0  0  0  0  0  0  0  0  0  0  0  0
   -0.8069   -1.5900   -0.7411 C   0  0  0  0  0  0  0  0  0  0  0  0
   -1.3885   -0.3986   -0.4945 C   0  0  0  0  0  0  0  0  0  0  0  0
   -0.6444    0.8805   -0.3321 C   0  0  0  0  0  0  0  0  0  0  0  0
   -1.2032    1.9659   -0.2144 O   0  0  0  0  0  0  0  0  0  0  0  0
   -3.1191   -0.2850   -0.3257 Cl  0  0  0  0  0  0  0  0  0  0  0  0
   -1.5358   -2.7631   -0.9608 N   0  0  0  0  0  0  0  0  0  0  0  0
   -1.2003   -4.1078   -0.6997 C   0  0  0  0  0  0  0  0  0  0  0  0
   -0.2025   -4.4969    0.2026 C   0  0  0  0  0  0  0  0  0  0  0  0
    0.1188   -5.8480    0.3939 C   0  0  0  0  0  0  0  0  0  0  0  0
   -0.5514   -6.8306   -0.3376 C   0  0  0  0  0  0  0  0  0  0  0  0
   -1.5316   -6.4672   -1.2623 C   0  0  0  0  0  0  0  0  0  0  0  0
   -1.8575   -5.1140   -1.4292 C   0  0  0  0  0  0  0  0  0  0  0  0
   -0.1138   -8.5441   -0.1121 S   0  0  0  0  0  0  0  0  0  0  0  0
   -0.6727   -9.2925   -1.2208 O   0  0  0  0  0  0  0  0  0  0  0  0
    1.2957   -8.5950    0.1989 O   0  0  0  0  0  0  0  0  0  0  0  0
   -1.0674   -8.9257    1.2249 N   0  0  0  0  0  0  0  0  0  0  0  0
   -0.4288   -9.7240    2.2085 C   0  0  0  0  0  0  0  0  0  0  0  0
   -1.0042  -10.8489    2.5700 N   0  0  0  0  0  0  0  0  0  0  0  0
   -0.3092  -11.4837    3.5818 N   0  0  0  0  0  0  0  0  0  0  0  0
    0.7358  -10.7821    3.9666 C   0  0  0  0  0  0  0  0  0  0  0  0
    0.9178   -9.2750    3.1670 S   0  0  0  0  0  0  0  0  0  0  0  0
    4.6992    0.5826   -0.0772 H   0  0  0  0  0  0  0  0  0  0  0  0
    3.5601    2.7589    0.3132 H   0  0  0  0  0  0  0  0  0  0  0  0
    1.0878    2.9107    0.1864 H   0  0  0  0  0  0  0  0  0  0  0  0
    3.3719   -1.4265   -0.6389 H   0  0  0  0  0  0  0  0  0  0  0  0
   -2.5424   -2.6157   -1.0218 H   0  0  0  0  0  0  0  0  0  0  0  0
    0.3451   -3.7510    0.7718 H   0  0  0  0  0  0  0  0  0  0  0  0
    0.9028   -6.1158    1.0984 H   0  0  0  0  0  0  0  0  0  0  0  0
   -2.0352   -7.2147   -1.8709 H   0  0  0  0  0  0  0  0  0  0  0  0
   -2.6094   -4.8429   -2.1687 H   0  0  0  0  0  0  0  0  0  0  0  0
   -1.8794   -9.4534    0.8995 H   0  0  0  0  0  0  0  0  0  0  0  0
    1.4190  -11.1237    4.7321 H   0  0  0  0  0  0  0  0  0  0  0  0
  1  2  2  0  0  0  0
  1  6  1  0  0  0  0
  1 30  1  0  0  0  0
  2  3  1  0  0  0  0
  2 31  1  0  0  0  0
  3  4  2  0  0  0  0
  3 32  1  0  0  0  0
  4  5  1  0  0  0  0
  4 11  1  0  0  0  0
  5  6  2  0  0  0  0
  5  7  1  0  0  0  0
  6 33  1  0  0  0  0
  7  8  2  0  0  0  0
  7  9  1  0  0  0  0
  9 10  2  0  0  0  0
  9 14  1  0  0  0  0
 10 11  1  0  0  0  0
 10 13  1  0  0  0  0
 11 12  2  0  0  0  0
 14 15  1  0  0  0  0
 14 34  1  0  0  0  0
 15 16  2  0  0  0  0
 15 20  1  0  0  0  0
 16 17  1  0  0  0  0
 16 35  1  0  0  0  0
 17 18  2  0  0  0  0
 17 36  1  0  0  0  0
 18 19  1  0  0  0  0
 18 21  1  0  0  0  0
 19 20  2  0  0  0  0
 19 37  1  0  0  0  0
 20 38  1  0  0  0  0
 21 22  2  0  0  0  0
 21 23  2  0  0  0  0
 21 24  1  0  0  0  0
 24 25  1  0  0  0  0
 24 39  1  0  0  0  0
 25 26  2  0  0  0  0
 25 29  1  0  0  0  0
 26 27  1  0  0  0  0
 27 28  2  0  0  0  0
 28 29  1  0  0  0  0
 28 40  1  0  0  0  0
M  END
