
 OpenBabel10072620203D

 35 37  0  0  0  0  0  0  0  0999 V2000
    0.8041   -0.2789   -0.7475 C   0  0  0  0  0  0  0  0  0  0  0  0
   -0.0956   -1.2890   -0.3878 C   0  0  0  0  0  0  0  0  0  0  0  0
   -1.1251   -1.0064    0.5171 C   0  0  0  0  0  0  0  0  0  0  0  0
   -1.2541    0.2734    1.0664 C   0  0  0  0  0  0  0  0  0  0  0  0
   -0.3446    1.2739    0.7001 C   0  0  0  0  0  0  0  0  0  0  0  0
    0.6929    1.0172   -0.2166 C   0  0  0  0  0  0  0  0  0  0  0  0
    1.6494    2.0855   -0.5459 C   0  0  0  0  0  0  0  0  0  0  0  0
    1.9171    3.1144    0.2343 N   0  0  0  0  0  0  0  0  0  0  0  0
    2.8932    3.9339   -0.2953 N   0  0  0  0  0  0  0  0  0  0  0  0
    3.2994    3.5248   -1.4753 C   0  0  0  0  0  0  0  0  0  0  0  0
    2.5249    2.1179   -2.0314 S   0  0  0  0  0  0  0  0  0  0  0  0
    4.3315    4.1377   -2.1426 N   0  0  0  0  0  0  0  0  0  0  0  0
    4.7341    3.8981   -3.4388 C   0  0  0  0  0  0  0  0  0  0  0  0
    4.1266    3.2141   -4.2515 O   0  0  0  0  0  0  0  0  0  0  0  0
    5.9484    4.5210   -3.6870 N   0  0  0  0  0  0  0  0  0  0  0  0
    6.6794    4.5324   -4.8996 C   0  0  0  0  0  0  0  0  0  0  0  0
    8.0327    4.9242   -4.8612 C   0  0  0  0  0  0  0  0  0  0  0  0
    8.8128    4.9372   -6.0184 C   0  0  0  0  0  0  0  0  0  0  0  0
    8.2368    4.5862   -7.2340 C   0  0  0  0  0  0  0  0  0  0  0  0
    6.8943    4.2194   -7.2978 C   0  0  0  0  0  0  0  0  0  0  0  0
    6.1188    4.1862   -6.1325 C   0  0  0  0  0  0  0  0  0  0  0  0
    9.1883    4.6110   -8.6675 Cl  0  0  0  0  0  0  0  0  0  0  0  0
    8.7842    5.3868   -3.3702 Cl  0  0  0  0  0  0  0  0  0  0  0  0
   -2.0747   -2.0619    0.8933 N   0  3  0  0  0  0  0  0  0  0  0  0
   -1.8942   -3.1926    0.4187 O   0  0  0  0  0  0  0  0  0  0  0  0
   -2.9990   -1.7617    1.6612 O   0  5  0  0  0  0  0  0  0  0  0  0
    1.6074   -0.5347   -1.4356 H   0  0  0  0  0  0  0  0  0  0  0  0
    0.0260   -2.2823   -0.8175 H   0  0  0  0  0  0  0  0  0  0  0  0
   -2.0456    0.5057    1.7773 H   0  0  0  0  0  0  0  0  0  0  0  0
   -0.4488    2.2622    1.1488 H   0  0  0  0  0  0  0  0  0  0  0  0
    4.7108    4.9303   -1.6497 H   0  0  0  0  0  0  0  0  0  0  0  0
    6.4778    4.8131   -2.8745 H   0  0  0  0  0  0  0  0  0  0  0  0
    9.8617    5.2148   -5.9700 H   0  0  0  0  0  0  0  0  0  0  0  0
    6.4409    3.9533   -8.2497 H   0  0  0  0  0  0  0  0  0  0  0  0
    5.0760    3.8931   -6.2266 H   0  0  0  0  0  0  0  0  0  0  0  0
  1  2  2  0  0  0  0
  1  6  1  0  0  0  0
  1 27  1  0  0  0  0
  2  3  1  0  0  0  0
  2 28  1  0  0  0  0
  3  4  2  0  0  0  0
  3 24  1  0  0  0  0
  4  5  1  0  0  0  0
  4 29  1  0  0  0  0
  5  6  2  0  0  0  0
  5 30  1  0  0  0  0
  6  7  1  0  0  0  0
  7  8  2  0  0  0  0
  7 11  1  0  0  0  0
  8  9  1  0  0  0  0
  9 10  2  0  0  0  0
 10 11  1  0  0  0  0
 10 12  1  0  0  0  0
 12 13  1  0  0  0  0
 12 31  1  0  0  0  0
 13 14  2  0  0  0  0
 13 15  1  0  0  0  0
 15 16  1  0  0  0  0
 15 32  1  0  0  0  0
 16 17  2  0  0  0  0
 16 21  1  0  0  0  0
 17 18  1  0  0  0  0
 17 23  1  0  0  0  0
 18 19  2  0  0  0  0
 18 33  1  0  0  0  0
 19 20  1  0  0  0  0
 19 22  1  0  0  0  0
 20 21  2  0  0  0  0
 20 34  1  0  0  0  0
 21 35  1  0  0  0  0
 24 25  2  0  0  0  0
 24 26  1  0  0  0  0
M  CHG  2  24   1  26  -1
M  END
