
 OpenBabel10072620023D

167174  0  0  1  0  0  0  0  0999 V2000
   12.0850   -3.1461    3.1604 C   0  0  0  0  0  0  0  0  0  0  0  0
   11.5952   -1.7004    3.2052 C   0  0  0  0  0  0  0  0  0  0  0  0
   12.2271   -0.9690    4.4006 C   0  0  0  0  0  0  0  0  0  0  0  0
   11.9039   -0.9336    1.9037 C   0  0  0  0  0  0  0  0  0  0  0  0
   11.3195   -1.5262    0.6176 C   0  0  0  0  0  0  0  0  0  0  0  0
    9.7997   -1.7414    0.6127 C   0  0  0  0  0  0  0  0  0  0  0  0
    8.9037   -0.4903    0.8571 C   0  0  3  0  0  0  0  0  0  0  0  0
    9.1710    0.5580   -0.2260 C   0  0  0  0  0  0  0  0  0  0  0  0
    7.4087   -0.9368    0.9126 C   0  0  1  0  0  0  0  0  0  0  0  0
    7.1300   -1.8759    2.1299 C   0  0  0  0  0  0  0  0  0  0  0  0
    5.6565   -1.6791    2.5277 C   0  0  0  0  0  0  0  0  0  0  0  0
    5.0932   -0.8472    1.3871 C   0  0  3  0  0  0  0  0  0  0  0  0
    6.2479    0.1158    1.0130 C   0  0  2  0  0  0  0  0  0  0  0  0
    5.8877    0.8216   -0.3206 C   0  0  0  0  0  0  0  0  0  0  0  0
    4.3696    0.9738   -0.6017 C   0  0  0  0  0  0  0  0  0  0  0  0
    3.5338    1.0686    0.6856 C   0  0  3  0  0  0  0  0  0  0  0  0
    3.6723   -0.2611    1.4775 C   0  0  3  0  0  0  0  0  0  0  0  0
    3.0416   -0.1088    2.8663 C   0  0  0  0  0  0  0  0  0  0  0  0
    1.5612    0.3302    2.7888 C   0  0  0  0  0  0  0  0  0  0  0  0
    1.0818    0.5802    1.3502 C   0  0  2  0  0  0  0  0  0  0  0  0
    2.0225    1.5581    0.5647 C   0  0  2  0  0  0  0  0  0  0  0  0
    1.5137    1.6855   -0.9008 C   0  0  0  0  0  0  0  0  0  0  0  0
    0.0042    1.9696   -1.0215 C   0  0  0  0  0  0  0  0  0  0  0  0
   -0.8010    0.9391   -0.2296 C   0  0  1  0  0  0  0  0  0  0  0  0
   -0.4201    0.9498    1.2608 C   0  0  0  0  0  0  0  0  0  0  0  0
   -2.2371    0.9187   -0.5540 N   0  0  0  0  0  0  0  0  0  0  0  0
   -2.6487    0.1884   -1.7751 C   0  0  0  0  0  0  0  0  0  0  0  0
   -1.7442   -0.9322   -2.2775 C   0  0  0  0  0  0  0  0  0  0  0  0
   -2.3075   -1.6526   -3.5034 C   0  0  0  0  0  0  0  0  0  0  0  0
   -2.5447   -0.7819   -4.7464 C   0  0  0  0  0  0  0  0  0  0  0  0
   -1.3223   -0.0049   -5.1513 C   0  0  0  0  0  0  0  0  0  0  0  0
   -1.2398    1.0976   -5.9341 C   0  0  0  0  0  0  0  0  0  0  0  0
   -2.4450    1.7015   -6.5620 C   0  0  0  0  0  0  0  0  0  0  0  0
   -3.2434    0.9650   -7.4503 C   0  0  0  0  0  0  0  0  0  0  0  0
   -4.3007    1.5923   -8.1258 C   0  0  0  0  0  0  0  0  0  0  0  0
   -4.6013    2.9393   -7.9137 C   0  0  0  0  0  0  0  0  0  0  0  0
   -3.8240    3.6681   -7.0161 C   0  0  0  0  0  0  0  0  0  0  0  0
   -2.7564    3.0539   -6.3532 C   0  0  0  0  0  0  0  0  0  0  0  0
   -4.1475    5.3277   -6.6897 Cl  0  0  0  0  0  0  0  0  0  0  0  0
   -5.5661    3.5481   -8.6691 O   0  0  0  0  0  0  0  0  0  0  0  0
   -6.8146    3.5927   -7.9759 C   0  0  0  0  0  0  0  0  0  0  0  0
   -5.1384    0.7836   -9.0193 C   0  0  0  0  0  0  0  0  0  0  0  0
   -6.0184    0.0529   -8.6013 O   0  0  0  0  0  0  0  0  0  0  0  0
   -4.7750    0.9056  -10.3116 O   0  0  0  0  0  0  0  0  0  0  0  0
    0.1516    1.5632   -6.2036 C   0  0  0  0  0  0  0  0  0  0  0  0
    1.0416    0.7103   -6.8764 C   0  0  0  0  0  0  0  0  0  0  0  0
    2.3527    1.1277   -7.1331 C   0  0  0  0  0  0  0  0  0  0  0  0
    2.8068    2.3799   -6.7180 C   0  0  0  0  0  0  0  0  0  0  0  0
    1.9186    3.2378   -6.0718 C   0  0  0  0  0  0  0  0  0  0  0  0
    0.6053    2.8313   -5.8101 C   0  0  0  0  0  0  0  0  0  0  0  0
    2.4191    4.8052   -5.5639 Cl  0  0  0  0  0  0  0  0  0  0  0  0
    4.0716    2.7991   -7.0307 O   0  0  0  0  0  0  0  0  0  0  0  0
    5.0178    2.3943   -6.0352 C   0  0  0  0  0  0  0  0  0  0  0  0
    3.2638    0.1920   -7.8029 C   0  0  0  0  0  0  0  0  0  0  0  0
    3.8516   -0.6892   -7.2078 O   0  0  0  0  0  0  0  0  0  0  0  0
    3.3198    0.4103   -9.1328 O   0  0  0  0  0  0  0  0  0  0  0  0
   -3.0957    1.9124   -0.0366 C   0  0  0  0  0  0  0  0  0  0  0  0
   -2.7585    2.8669    0.6444 O   0  0  0  0  0  0  0  0  0  0  0  0
   -4.5330    1.6716   -0.3834 C   0  0  0  0  0  0  0  0  0  0  0  0
   -5.3513    2.4434   -1.1288 C   0  0  0  0  0  0  0  0  0  0  0  0
   -5.0209    3.8213   -1.5845 C   0  0  0  0  0  0  0  0  0  0  0  0
   -5.9694    4.8400   -1.4317 C   0  0  0  0  0  0  0  0  0  0  0  0
   -5.7608    6.1259   -1.9539 C   0  0  0  0  0  0  0  0  0  0  0  0
   -4.5618    6.4266   -2.6089 C   0  0  0  0  0  0  0  0  0  0  0  0
   -3.6108    5.4123   -2.7757 C   0  0  0  0  0  0  0  0  0  0  0  0
   -3.8381    4.1263   -2.2665 C   0  0  0  0  0  0  0  0  0  0  0  0
   -2.1188    5.7022   -3.6011 Cl  0  0  0  0  0  0  0  0  0  0  0  0
   -4.3326    7.6594   -3.1605 O   0  0  0  0  0  0  0  0  0  0  0  0
   -3.9095    8.6086   -2.1767 C   0  0  0  0  0  0  0  0  0  0  0  0
   -6.8655    7.0833   -1.7584 C   0  0  0  0  0  0  0  0  0  0  0  0
   -7.5660    7.1476   -0.7571 O   0  0  0  0  0  0  0  0  0  0  0  0
   -7.1404    7.8048   -2.8518 O   0  0  0  0  0  0  0  0  0  0  0  0
   -6.5352    1.7041   -1.6703 C   0  0  0  0  0  0  0  0  0  0  0  0
   -7.8510    1.9924   -1.2996 C   0  0  0  0  0  0  0  0  0  0  0  0
   -8.9087    1.3386   -1.9518 C   0  0  0  0  0  0  0  0  0  0  0  0
   -8.6769    0.3838   -2.9476 C   0  0  0  0  0  0  0  0  0  0  0  0
   -7.3638    0.0413   -3.2616 C   0  0  0  0  0  0  0  0  0  0  0  0
   -6.3079    0.7198   -2.6534 C   0  0  0  0  0  0  0  0  0  0  0  0
   -6.9748   -1.1953   -4.3937 Cl  0  0  0  0  0  0  0  0  0  0  0  0
   -9.7451   -0.1997   -3.5762 O   0  0  0  0  0  0  0  0  0  0  0  0
   -9.8995    0.3299   -4.9028 C   0  0  0  0  0  0  0  0  0  0  0  0
  -10.2895    1.7639   -1.6782 C   0  0  0  0  0  0  0  0  0  0  0  0
  -10.8694    2.5814   -2.3644 O   0  0  0  0  0  0  0  0  0  0  0  0
  -10.7961    1.1735   -0.5766 O   0  0  0  0  0  0  0  0  0  0  0  0
    1.9674    2.9789    1.1945 C   0  0  0  0  0  0  0  0  0  0  0  0
    6.5766    1.1520    2.1181 C   0  0  0  0  0  0  0  0  0  0  0  0
   13.1655   -3.2013    3.0112 H   0  0  0  0  0  0  0  0  0  0  0  0
   11.5994   -3.7132    2.3642 H   0  0  0  0  0  0  0  0  0  0  0  0
   11.8500   -3.6544    4.0977 H   0  0  0  0  0  0  0  0  0  0  0  0
   10.5082   -1.7145    3.3595 H   0  0  0  0  0  0  0  0  0  0  0  0
   13.2666   -0.6771    4.1882 H   0  0  0  0  0  0  0  0  0  0  0  0
   12.2219   -1.6081    5.2934 H   0  0  0  0  0  0  0  0  0  0  0  0
   11.6524   -0.0607    4.6304 H   0  0  0  0  0  0  0  0  0  0  0  0
   12.9905   -0.8720    1.7677 H   0  0  0  0  0  0  0  0  0  0  0  0
   11.5604    0.1024    2.0011 H   0  0  0  0  0  0  0  0  0  0  0  0
   11.6028   -0.8909   -0.2315 H   0  0  0  0  0  0  0  0  0  0  0  0
   11.7925   -2.4954    0.4188 H   0  0  0  0  0  0  0  0  0  0  0  0
    9.5611   -2.5155    1.3509 H   0  0  0  0  0  0  0  0  0  0  0  0
    9.5264   -2.1713   -0.3624 H   0  0  0  0  0  0  0  0  0  0  0  0
    9.1695   -0.0504    1.8258 H   0  0  0  0  0  0  0  0  0  0  0  0
    8.9233    0.1744   -1.2209 H   0  0  0  0  0  0  0  0  0  0  0  0
   10.2233    0.8572   -0.2336 H   0  0  0  0  0  0  0  0  0  0  0  0
    8.6015    1.4737   -0.0582 H   0  0  0  0  0  0  0  0  0  0  0  0
    7.2263   -1.5319    0.0040 H   0  0  0  0  0  0  0  0  0  0  0  0
    7.7780   -1.6443    2.9839 H   0  0  0  0  0  0  0  0  0  0  0  0
    7.3125   -2.9200    1.8520 H   0  0  0  0  0  0  0  0  0  0  0  0
    5.1407   -2.6377    2.6411 H   0  0  0  0  0  0  0  0  0  0  0  0
    5.5961   -1.1518    3.4865 H   0  0  0  0  0  0  0  0  0  0  0  0
    5.0163   -1.5538    0.5404 H   0  0  0  0  0  0  0  0  0  0  0  0
    6.3341    1.8238   -0.3404 H   0  0  0  0  0  0  0  0  0  0  0  0
    6.3317    0.2882   -1.1707 H   0  0  0  0  0  0  0  0  0  0  0  0
    4.2315    1.8595   -1.2301 H   0  0  0  0  0  0  0  0  0  0  0  0
    4.0352    0.1118   -1.1936 H   0  0  0  0  0  0  0  0  0  0  0  0
    4.0347    1.8386    1.2805 H   0  0  0  0  0  0  0  0  0  0  0  0
    3.0677   -1.0218    0.9623 H   0  0  0  0  0  0  0  0  0  0  0  0
    3.6021    0.6207    3.4633 H   0  0  0  0  0  0  0  0  0  0  0  0
    3.0905   -1.0591    3.4121 H   0  0  0  0  0  0  0  0  0  0  0  0
    0.9397   -0.4568    3.2377 H   0  0  0  0  0  0  0  0  0  0  0  0
    1.4078    1.2211    3.4083 H   0  0  0  0  0  0  0  0  0  0  0  0
    1.1433   -0.3960    0.8460 H   0  0  0  0  0  0  0  0  0  0  0  0
    2.0515    2.4831   -1.4278 H   0  0  0  0  0  0  0  0  0  0  0  0
    1.7244    0.7535   -1.4407 H   0  0  0  0  0  0  0  0  0  0  0  0
   -0.2311    2.9850   -0.6848 H   0  0  0  0  0  0  0  0  0  0  0  0
   -0.2747    1.9304   -2.0812 H   0  0  0  0  0  0  0  0  0  0  0  0
   -0.4452   -0.0441   -0.5407 H   0  0  0  0  0  0  0  0  0  0  0  0
   -1.0128    0.1947    1.7944 H   0  0  0  0  0  0  0  0  0  0  0  0
   -0.6292    1.9094    1.7425 H   0  0  0  0  0  0  0  0  0  0  0  0
   -2.7816    0.9494   -2.5513 H   0  0  0  0  0  0  0  0  0  0  0  0
   -3.6242   -0.2658   -1.5873 H   0  0  0  0  0  0  0  0  0  0  0  0
   -1.6184   -1.6706   -1.4770 H   0  0  0  0  0  0  0  0  0  0  0  0
   -0.7470   -0.5471   -2.5131 H   0  0  0  0  0  0  0  0  0  0  0  0
   -1.6040   -2.4514   -3.7687 H   0  0  0  0  0  0  0  0  0  0  0  0
   -3.2488   -2.1459   -3.2335 H   0  0  0  0  0  0  0  0  0  0  0  0
   -2.8064   -1.4609   -5.5677 H   0  0  0  0  0  0  0  0  0  0  0  0
   -3.4038   -0.1242   -4.5797 H   0  0  0  0  0  0  0  0  0  0  0  0
   -0.3944   -0.4312   -4.7662 H   0  0  0  0  0  0  0  0  0  0  0  0
   -3.0467   -0.0924   -7.6313 H   0  0  0  0  0  0  0  0  0  0  0  0
   -2.1618    3.6504   -5.6706 H   0  0  0  0  0  0  0  0  0  0  0  0
   -6.8028    3.0900   -7.0019 H   0  0  0  0  0  0  0  0  0  0  0  0
   -7.0923    4.6386   -7.8298 H   0  0  0  0  0  0  0  0  0  0  0  0
   -7.5767    3.1253   -8.6042 H   0  0  0  0  0  0  0  0  0  0  0  0
   -4.0982    1.5889  -10.4857 H   0  0  0  0  0  0  0  0  0  0  0  0
    0.7172   -0.2855   -7.1843 H   0  0  0  0  0  0  0  0  0  0  0  0
   -0.0433    3.5134   -5.2702 H   0  0  0  0  0  0  0  0  0  0  0  0
    5.5401    3.2901   -5.6901 H   0  0  0  0  0  0  0  0  0  0  0  0
    4.5681    1.8956   -5.1678 H   0  0  0  0  0  0  0  0  0  0  0  0
    5.7541    1.7228   -6.4893 H   0  0  0  0  0  0  0  0  0  0  0  0
    2.8360    1.2043   -9.4343 H   0  0  0  0  0  0  0  0  0  0  0  0
   -4.8519    0.6748   -0.0816 H   0  0  0  0  0  0  0  0  0  0  0  0
   -6.9013    4.6492   -0.9063 H   0  0  0  0  0  0  0  0  0  0  0  0
   -3.0828    3.3638   -2.4252 H   0  0  0  0  0  0  0  0  0  0  0  0
   -2.8158    8.5952   -2.0881 H   0  0  0  0  0  0  0  0  0  0  0  0
   -4.3649    8.4421   -1.1916 H   0  0  0  0  0  0  0  0  0  0  0  0
   -4.2087    9.6038   -2.5261 H   0  0  0  0  0  0  0  0  0  0  0  0
   -7.9532    8.3039   -2.6228 H   0  0  0  0  0  0  0  0  0  0  0  0
   -8.0717    2.7468   -0.5466 H   0  0  0  0  0  0  0  0  0  0  0  0
   -5.2926    0.4973   -2.9704 H   0  0  0  0  0  0  0  0  0  0  0  0
  -10.9635    0.5225   -5.0736 H   0  0  0  0  0  0  0  0  0  0  0  0
   -9.5633   -0.4168   -5.6305 H   0  0  0  0  0  0  0  0  0  0  0  0
   -9.3518    1.2695   -5.0658 H   0  0  0  0  0  0  0  0  0  0  0  0
  -10.2271    0.4886   -0.1767 H   0  0  0  0  0  0  0  0  0  0  0  0
    2.5751    3.6810    0.6113 H   0  0  0  0  0  0  0  0  0  0  0  0
    0.9541    3.3859    1.2378 H   0  0  0  0  0  0  0  0  0  0  0  0
    2.3609    2.9827    2.2170 H   0  0  0  0  0  0  0  0  0  0  0  0
    6.9422    0.6790    3.0374 H   0  0  0  0  0  0  0  0  0  0  0  0
    7.3642    1.8414    1.7909 H   0  0  0  0  0  0  0  0  0  0  0  0
    5.7148    1.7601    2.4018 H   0  0  0  0  0  0  0  0  0  0  0  0
  1  2  1  0  0  0  0
  1 87  1  0  0  0  0
  1 88  1  0  0  0  0
  1 89  1  0  0  0  0
  2  3  1  0  0  0  0
  2  4  1  0  0  0  0
  2 90  1  0  0  0  0
  3 91  1  0  0  0  0
  3 92  1  0  0  0  0
  3 93  1  0  0  0  0
  4  5  1  0  0  0  0
  4 94  1  0  0  0  0
  4 95  1  0  0  0  0
  5  6  1  0  0  0  0
  5 96  1  0  0  0  0
  5 97  1  0  0  0  0
  6  7  1  0  0  0  0
  6 98  1  0  0  0  0
  6 99  1  0  0  0  0
  7  8  1  0  0  0  0
  7  9  1  0  0  0  0
  7100  1  0  0  0  0
  8101  1  0  0  0  0
  8102  1  0  0  0  0
  8103  1  0  0  0  0
  9 10  1  0  0  0  0
  9 13  1  0  0  0  0
  9104  1  6  0  0  0
 10 11  1  0  0  0  0
 10105  1  0  0  0  0
 10106  1  0  0  0  0
 11 12  1  0  0  0  0
 11107  1  0  0  0  0
 11108  1  0  0  0  0
 12 13  1  0  0  0  0
 12 17  1  0  0  0  0
 12109  1  0  0  0  0
 13 14  1  0  0  0  0
 13 86  1  1  0  0  0
 14 15  1  0  0  0  0
 14110  1  0  0  0  0
 14111  1  0  0  0  0
 15 16  1  0  0  0  0
 15112  1  0  0  0  0
 15113  1  0  0  0  0
 16 17  1  0  0  0  0
 16 21  1  0  0  0  0
 16114  1  0  0  0  0
 17 18  1  0  0  0  0
 17115  1  0  0  0  0
 18 19  1  0  0  0  0
 18116  1  0  0  0  0
 18117  1  0  0  0  0
 19 20  1  0  0  0  0
 19118  1  0  0  0  0
 19119  1  0  0  0  0
 20 21  1  0  0  0  0
 20 25  1  0  0  0  0
 20120  1  6  0  0  0
 21 22  1  0  0  0  0
 21 85  1  1  0  0  0
 22 23  1  0  0  0  0
 22121  1  0  0  0  0
 22122  1  0  0  0  0
 23 24  1  0  0  0  0
 23123  1  0  0  0  0
 23124  1  0  0  0  0
 24 25  1  0  0  0  0
 24 26  1  0  0  0  0
 24125  1  6  0  0  0
 25126  1  0  0  0  0
 25127  1  0  0  0  0
 26 27  1  0  0  0  0
 26 57  1  0  0  0  0
 27 28  1  0  0  0  0
 27128  1  0  0  0  0
 27129  1  0  0  0  0
 28 29  1  0  0  0  0
 28130  1  0  0  0  0
 28131  1  0  0  0  0
 29 30  1  0  0  0  0
 29132  1  0  0  0  0
 29133  1  0  0  0  0
 30 31  1  0  0  0  0
 30134  1  0  0  0  0
 30135  1  0  0  0  0
 31 32  2  0  0  0  0
 31136  1  0  0  0  0
 32 33  1  0  0  0  0
 32 45  1  0  0  0  0
 33 34  2  0  0  0  0
 33 38  1  0  0  0  0
 34 35  1  0  0  0  0
 34137  1  0  0  0  0
 35 36  2  0  0  0  0
 35 42  1  0  0  0  0
 36 37  1  0  0  0  0
 36 40  1  0  0  0  0
 37 38  2  0  0  0  0
 37 39  1  0  0  0  0
 38138  1  0  0  0  0
 40 41  1  0  0  0  0
 41139  1  0  0  0  0
 41140  1  0  0  0  0
 41141  1  0  0  0  0
 42 43  2  0  0  0  0
 42 44  1  0  0  0  0
 44142  1  0  0  0  0
 45 46  2  0  0  0  0
 45 50  1  0  0  0  0
 46 47  1  0  0  0  0
 46143  1  0  0  0  0
 47 48  2  0  0  0  0
 47 54  1  0  0  0  0
 48 49  1  0  0  0  0
 48 52  1  0  0  0  0
 49 50  2  0  0  0  0
 49 51  1  0  0  0  0
 50144  1  0  0  0  0
 52 53  1  0  0  0  0
 53145  1  0  0  0  0
 53146  1  0  0  0  0
 53147  1  0  0  0  0
 54 55  2  0  0  0  0
 54 56  1  0  0  0  0
 56148  1  0  0  0  0
 57 58  2  0  0  0  0
 57 59  1  0  0  0  0
 59 60  2  0  0  0  0
 59149  1  0  0  0  0
 60 61  1  0  0  0  0
 60 73  1  0  0  0  0
 61 62  2  0  0  0  0
 61 66  1  0  0  0  0
 62 63  1  0  0  0  0
 62150  1  0  0  0  0
 63 64  2  0  0  0  0
 63 70  1  0  0  0  0
 64 65  1  0  0  0  0
 64 68  1  0  0  0  0
 65 66  2  0  0  0  0
 65 67  1  0  0  0  0
 66151  1  0  0  0  0
 68 69  1  0  0  0  0
 69152  1  0  0  0  0
 69153  1  0  0  0  0
 69154  1  0  0  0  0
 70 71  2  0  0  0  0
 70 72  1  0  0  0  0
 72155  1  0  0  0  0
 73 74  2  0  0  0  0
 73 78  1  0  0  0  0
 74 75  1  0  0  0  0
 74156  1  0  0  0  0
 75 76  2  0  0  0  0
 75 82  1  0  0  0  0
 76 77  1  0  0  0  0
 76 80  1  0  0  0  0
 77 78  2  0  0  0  0
 77 79  1  0  0  0  0
 78157  1  0  0  0  0
 80 81  1  0  0  0  0
 81158  1  0  0  0  0
 81159  1  0  0  0  0
 81160  1  0  0  0  0
 82 83  2  0  0  0  0
 82 84  1  0  0  0  0
 84161  1  0  0  0  0
 85162  1  0  0  0  0
 85163  1  0  0  0  0
 85164  1  0  0  0  0
 86165  1  0  0  0  0
 86166  1  0  0  0  0
 86167  1  0  0  0  0
M  END
