
 OpenBabel10072619473D

 32 32  0  0  0  0  0  0  0  0999 V2000
    1.1653   -0.4339   -0.1155 C   0  0  0  0  0  0  0  0  0  0  0  0
    2.6338   -0.1640   -0.0646 C   0  0  0  0  0  0  0  0  0  0  0  0
    3.4183   -1.1148    0.4855 N   0  0  0  0  0  0  0  0  0  0  0  0
    4.7634   -0.9013    0.6150 N   0  0  0  0  0  0  0  0  0  0  0  0
    5.2998    0.2662    0.2012 C   0  0  0  0  0  0  0  0  0  0  0  0
    4.5228    1.2719   -0.3505 C   0  0  0  0  0  0  0  0  0  0  0  0
    3.1574    1.0465   -0.4930 C   0  0  0  0  0  0  0  0  0  0  0  0
    6.7634    0.4491    0.4309 C   0  0  0  0  0  0  0  0  0  0  0  0
    7.2819    1.6337    0.2646 N   0  0  0  0  0  0  0  0  0  0  0  0
    8.5926    1.8309    0.5860 N   0  0  0  0  0  0  0  0  0  0  0  0
    9.1954    3.0599    0.4485 C   0  0  0  0  0  0  0  0  0  0  0  0
    8.5791    4.3680   -0.3911 S   0  0  0  0  0  0  0  0  0  0  0  0
   10.4030    3.2154    1.0689 N   0  0  0  0  0  0  0  0  0  0  0  0
   11.0898    2.2732    1.9184 C   0  0  0  0  0  0  0  0  0  0  0  0
   12.1354    3.0022    2.6935 C   0  0  0  0  0  0  0  0  0  0  0  0
   13.4553    2.8371    2.5336 C   0  0  0  0  0  0  0  0  0  0  0  0
    7.5647   -0.7574    0.8815 C   0  0  0  0  0  0  0  0  0  0  0  0
    0.9650   -1.5087   -0.0719 H   0  0  0  0  0  0  0  0  0  0  0  0
    0.7344   -0.0510   -1.0434 H   0  0  0  0  0  0  0  0  0  0  0  0
    0.6696    0.0467    0.7327 H   0  0  0  0  0  0  0  0  0  0  0  0
    4.9569    2.2188   -0.6546 H   0  0  0  0  0  0  0  0  0  0  0  0
    2.5201    1.8104   -0.9241 H   0  0  0  0  0  0  0  0  0  0  0  0
    9.1006    1.0783    1.0239 H   0  0  0  0  0  0  0  0  0  0  0  0
   10.8504    4.1069    0.8870 H   0  0  0  0  0  0  0  0  0  0  0  0
   11.5115    1.4895    1.2812 H   0  0  0  0  0  0  0  0  0  0  0  0
   10.3771    1.8123    2.6103 H   0  0  0  0  0  0  0  0  0  0  0  0
   11.7841    3.6755    3.4728 H   0  0  0  0  0  0  0  0  0  0  0  0
   13.8606    2.1693    1.7794 H   0  0  0  0  0  0  0  0  0  0  0  0
   14.1590    3.3726    3.1644 H   0  0  0  0  0  0  0  0  0  0  0  0
    7.0132   -1.6959    0.8018 H   0  0  0  0  0  0  0  0  0  0  0  0
    7.8696   -0.6167    1.9225 H   0  0  0  0  0  0  0  0  0  0  0  0
    8.4563   -0.8531    0.2539 H   0  0  0  0  0  0  0  0  0  0  0  0
  1  2  1  0  0  0  0
  1 18  1  0  0  0  0
  1 19  1  0  0  0  0
  1 20  1  0  0  0  0
  2  3  2  0  0  0  0
  2  7  1  0  0  0  0
  3  4  1  0  0  0  0
  4  5  2  0  0  0  0
  5  6  1  0  0  0  0
  5  8  1  0  0  0  0
  6  7  2  0  0  0  0
  6 21  1  0  0  0  0
  7 22  1  0  0  0  0
  8  9  2  0  0  0  0
  8 17  1  0  0  0  0
  9 10  1  0  0  0  0
 10 11  1  0  0  0  0
 10 23  1  0  0  0  0
 11 12  2  0  0  0  0
 11 13  1  0  0  0  0
 13 14  1  0  0  0  0
 13 24  1  0  0  0  0
 14 15  1  0  0  0  0
 14 25  1  0  0  0  0
 14 26  1  0  0  0  0
 15 16  2  0  0  0  0
 15 27  1  0  0  0  0
 16 28  1  0  0  0  0
 16 29  1  0  0  0  0
 17 30  1  0  0  0  0
 17 31  1  0  0  0  0
 17 32  1  0  0  0  0
M  END
