
 OpenBabel10072620003D

 56 59  0  0  0  0  0  0  0  0999 V2000
    2.6167    0.6168    0.0271 C   0  0  0  0  0  0  0  0  0  0  0  0
    1.1175    0.5827   -0.0137 C   0  0  0  0  0  0  0  0  0  0  0  0
    0.3685    1.7648    0.0375 C   0  0  0  0  0  0  0  0  0  0  0  0
   -1.0283    1.7232   -0.0006 C   0  0  0  0  0  0  0  0  0  0  0  0
   -1.6896    0.4917   -0.0926 C   0  0  0  0  0  0  0  0  0  0  0  0
   -0.9438   -0.6944   -0.1475 C   0  0  0  0  0  0  0  0  0  0  0  0
    0.4516   -0.6455   -0.1089 C   0  0  0  0  0  0  0  0  0  0  0  0
   -3.1093    0.4415   -0.1237 N   0  0  0  0  0  0  0  0  0  0  0  0
   -3.8691    1.5637   -0.0674 N   0  0  0  0  0  0  0  0  0  0  0  0
   -5.1197    1.0821   -0.0873 C   0  0  0  0  0  0  0  0  0  0  0  0
   -6.3416    1.7709   -0.0254 C   0  0  0  0  0  0  0  0  0  0  0  0
   -7.5042    0.9525   -0.0670 C   0  0  0  0  0  0  0  0  0  0  0  0
   -7.4402   -0.4867   -0.1672 C   0  0  0  0  0  0  0  0  0  0  0  0
   -6.2077   -1.1713   -0.2092 C   0  0  0  0  0  0  0  0  0  0  0  0
   -5.0566   -0.3655   -0.1750 C   0  0  0  0  0  0  0  0  0  0  0  0
   -3.7706   -0.7374   -0.1930 N   0  0  0  0  0  0  0  0  0  0  0  0
   -8.6645   -1.2026   -0.1410 N   0  0  0  0  0  0  0  0  0  0  0  0
   -8.9951   -2.4654   -0.5725 C   0  0  0  0  0  0  0  0  0  0  0  0
   -8.1533   -3.4974   -1.5839 S   0  0  0  0  0  0  0  0  0  0  0  0
  -10.2226   -2.9312   -0.1329 N   0  0  0  0  0  0  0  0  0  0  0  0
  -11.1489   -2.3151    0.6983 C   0  0  0  0  0  0  0  0  0  0  0  0
  -11.0435   -1.1638    1.1083 O   0  0  0  0  0  0  0  0  0  0  0  0
  -12.3072   -3.1578    1.0962 C   0  0  0  0  0  0  0  0  0  0  0  0
  -12.8976   -4.0653    0.2033 C   0  0  0  0  0  0  0  0  0  0  0  0
  -13.9509   -4.8954    0.6170 C   0  0  0  0  0  0  0  0  0  0  0  0
  -14.4387   -4.7725    1.9317 C   0  0  0  0  0  0  0  0  0  0  0  0
  -13.8469   -3.8531    2.8104 C   0  0  0  0  0  0  0  0  0  0  0  0
  -12.7933   -3.0409    2.3969 C   0  0  0  0  0  0  0  0  0  0  0  0
  -15.4418   -5.4936    2.5258 O   0  0  0  0  0  0  0  0  0  0  0  0
  -16.4386   -6.0591    1.6857 C   0  0  0  0  0  0  0  0  0  0  0  0
  -14.5227   -5.8365   -0.1964 O   0  0  0  0  0  0  0  0  0  0  0  0
  -13.9111   -6.1123   -1.4499 C   0  0  0  0  0  0  0  0  0  0  0  0
   -8.8377    1.6676   -0.0149 C   0  0  0  0  0  0  0  0  0  0  0  0
    2.9923    1.6386    0.1429 H   0  0  0  0  0  0  0  0  0  0  0  0
    3.0290    0.2095   -0.9016 H   0  0  0  0  0  0  0  0  0  0  0  0
    2.9844    0.0273    0.8732 H   0  0  0  0  0  0  0  0  0  0  0  0
    0.8664    2.7295    0.1094 H   0  0  0  0  0  0  0  0  0  0  0  0
   -1.5847    2.6571    0.0452 H   0  0  0  0  0  0  0  0  0  0  0  0
   -1.4338   -1.6637   -0.2189 H   0  0  0  0  0  0  0  0  0  0  0  0
    1.0170   -1.5742   -0.1526 H   0  0  0  0  0  0  0  0  0  0  0  0
   -6.3760    2.8502    0.0507 H   0  0  0  0  0  0  0  0  0  0  0  0
   -6.0986   -2.2438   -0.2063 H   0  0  0  0  0  0  0  0  0  0  0  0
   -9.4618   -0.6916    0.2392 H   0  0  0  0  0  0  0  0  0  0  0  0
  -10.3837   -3.8917   -0.4027 H   0  0  0  0  0  0  0  0  0  0  0  0
  -12.5408   -4.1005   -0.8200 H   0  0  0  0  0  0  0  0  0  0  0  0
  -14.2169   -3.7722    3.8308 H   0  0  0  0  0  0  0  0  0  0  0  0
  -12.3503   -2.3328    3.0937 H   0  0  0  0  0  0  0  0  0  0  0  0
  -17.3048   -6.2930    2.3130 H   0  0  0  0  0  0  0  0  0  0  0  0
  -16.0902   -7.0017    1.2535 H   0  0  0  0  0  0  0  0  0  0  0  0
  -16.7745   -5.3576    0.9148 H   0  0  0  0  0  0  0  0  0  0  0  0
  -14.4403   -6.9565   -1.9015 H   0  0  0  0  0  0  0  0  0  0  0  0
  -12.8632   -6.4056   -1.3275 H   0  0  0  0  0  0  0  0  0  0  0  0
  -14.0075   -5.2587   -2.1282 H   0  0  0  0  0  0  0  0  0  0  0  0
   -8.7163    2.7526   -0.1064 H   0  0  0  0  0  0  0  0  0  0  0  0
   -9.3378    1.4651    0.9372 H   0  0  0  0  0  0  0  0  0  0  0  0
   -9.4753    1.3473   -0.8456 H   0  0  0  0  0  0  0  0  0  0  0  0
  1  2  1  0  0  0  0
  1 34  1  0  0  0  0
  1 35  1  0  0  0  0
  1 36  1  0  0  0  0
  2  3  2  0  0  0  0
  2  7  1  0  0  0  0
  3  4  1  0  0  0  0
  3 37  1  0  0  0  0
  4  5  2  0  0  0  0
  4 38  1  0  0  0  0
  5  6  1  0  0  0  0
  5  8  1  0  0  0  0
  6  7  2  0  0  0  0
  6 39  1  0  0  0  0
  7 40  1  0  0  0  0
  8  9  1  0  0  0  0
  8 16  1  0  0  0  0
  9 10  2  0  0  0  0
 10 11  1  0  0  0  0
 10 15  1  0  0  0  0
 11 12  2  0  0  0  0
 11 41  1  0  0  0  0
 12 13  1  0  0  0  0
 12 33  1  0  0  0  0
 13 14  2  0  0  0  0
 13 17  1  0  0  0  0
 14 15  1  0  0  0  0
 14 42  1  0  0  0  0
 15 16  2  0  0  0  0
 17 18  1  0  0  0  0
 17 43  1  0  0  0  0
 18 19  2  0  0  0  0
 18 20  1  0  0  0  0
 20 21  1  0  0  0  0
 20 44  1  0  0  0  0
 21 22  2  0  0  0  0
 21 23  1  0  0  0  0
 23 24  2  0  0  0  0
 23 28  1  0  0  0  0
 24 25  1  0  0  0  0
 24 45  1  0  0  0  0
 25 26  2  0  0  0  0
 25 31  1  0  0  0  0
 26 27  1  0  0  0  0
 26 29  1  0  0  0  0
 27 28  2  0  0  0  0
 27 46  1  0  0  0  0
 28 47  1  0  0  0  0
 29 30  1  0  0  0  0
 30 48  1  0  0  0  0
 30 49  1  0  0  0  0
 30 50  1  0  0  0  0
 31 32  1  0  0  0  0
 32 51  1  0  0  0  0
 32 52  1  0  0  0  0
 32 53  1  0  0  0  0
 33 54  1  0  0  0  0
 33 55  1  0  0  0  0
 33 56  1  0  0  0  0
M  END
