
 OpenBabel10072616323D

 28 30  0  0  0  0  0  0  0  0999 V2000
    1.3253    1.4225    2.0499 C   0  0  0  0  0  0  0  0  0  0  0  0
    2.0772    0.5924    1.2249 C   0  0  0  0  0  0  0  0  0  0  0  0
    1.4539   -0.2644    0.3125 C   0  0  0  0  0  0  0  0  0  0  0  0
    0.0502   -0.2692    0.2544 C   0  0  0  0  0  0  0  0  0  0  0  0
   -0.7272    0.5430    1.0837 C   0  0  0  0  0  0  0  0  0  0  0  0
   -0.0731    1.4062    1.9882 C   0  0  0  0  0  0  0  0  0  0  0  0
   -2.0994    0.4105    0.9227 N   0  0  0  0  0  0  0  0  0  0  0  0
   -2.3474   -0.4154   -0.0585 C   0  0  0  0  0  0  0  0  0  0  0  0
   -0.9944   -1.1836   -0.7639 S   0  0  0  0  0  0  0  0  0  0  0  0
   -3.6380   -0.7338   -0.5085 N   0  0  0  0  0  0  0  0  0  0  0  0
   -4.8986    0.3087   -0.2260 S   0  0  0  0  0  0  0  0  0  0  0  0
   -4.4529    1.6796   -0.1127 O   0  0  0  0  0  0  0  0  0  0  0  0
   -5.8996   -0.0460   -1.2131 O   0  0  0  0  0  0  0  0  0  0  0  0
   -5.5143   -0.2196    1.3376 C   0  0  0  0  0  0  0  0  0  0  0  0
   -6.5714   -1.1136    1.3896 C   0  0  0  0  0  0  0  0  0  0  0  0
   -7.1265   -1.5433    2.5491 N   0  0  0  0  0  0  0  0  0  0  0  0
   -6.6147   -1.0280    3.6880 C   0  0  0  0  0  0  0  0  0  0  0  0
   -5.5799   -0.1064    3.7344 C   0  0  0  0  0  0  0  0  0  0  0  0
   -5.0182    0.3092    2.5281 C   0  0  0  0  0  0  0  0  0  0  0  0
   -7.3583   -1.5939    5.1253 Cl  0  0  0  0  0  0  0  0  0  0  0  0
    1.8246    2.0920    2.7472 H   0  0  0  0  0  0  0  0  0  0  0  0
    3.1641    0.6148    1.2841 H   0  0  0  0  0  0  0  0  0  0  0  0
    2.0433   -0.9030   -0.3382 H   0  0  0  0  0  0  0  0  0  0  0  0
   -0.6591    2.0626    2.6245 H   0  0  0  0  0  0  0  0  0  0  0  0
   -3.7219   -1.3175   -1.3351 H   0  0  0  0  0  0  0  0  0  0  0  0
   -7.0286   -1.5226    0.4915 H   0  0  0  0  0  0  0  0  0  0  0  0
   -5.2204    0.2847    4.6800 H   0  0  0  0  0  0  0  0  0  0  0  0
   -4.2110    1.0382    2.5202 H   0  0  0  0  0  0  0  0  0  0  0  0
  1  2  2  0  0  0  0
  1  6  1  0  0  0  0
  1 21  1  0  0  0  0
  2  3  1  0  0  0  0
  2 22  1  0  0  0  0
  3  4  2  0  0  0  0
  3 23  1  0  0  0  0
  4  5  1  0  0  0  0
  4  9  1  0  0  0  0
  5  6  2  0  0  0  0
  5  7  1  0  0  0  0
  6 24  1  0  0  0  0
  7  8  2  0  0  0  0
  8  9  1  0  0  0  0
  8 10  1  0  0  0  0
 10 11  1  0  0  0  0
 10 25  1  0  0  0  0
 11 12  2  0  0  0  0
 11 13  2  0  0  0  0
 11 14  1  0  0  0  0
 14 15  2  0  0  0  0
 14 19  1  0  0  0  0
 15 16  1  0  0  0  0
 15 26  1  0  0  0  0
 16 17  2  0  0  0  0
 17 18  1  0  0  0  0
 17 20  1  0  0  0  0
 18 19  2  0  0  0  0
 18 27  1  0  0  0  0
 19 28  1  0  0  0  0
M  END
