
 OpenBabel10072619533D

 68 70  0  0  0  0  0  0  0  0999 V2000
    5.7722   -0.5293    0.5511 C   0  0  0  0  0  0  0  0  0  0  0  0
    6.2984   -1.1470   -0.6921 C   0  0  0  0  0  0  0  0  0  0  0  0
    5.8170   -2.1860   -1.4778 C   0  0  0  0  0  0  0  0  0  0  0  0
    6.6676   -2.2439   -2.6401 C   0  0  0  0  0  0  0  0  0  0  0  0
    7.6912   -1.3137   -2.4642 C   0  0  0  0  0  0  0  0  0  0  0  0
    7.4537   -0.6794   -1.2698 N   0  0  0  0  0  0  0  0  0  0  0  0
    8.7189   -1.1147   -3.3980 C   0  0  0  0  0  0  0  0  0  0  0  0
    8.6698   -1.8584   -4.5778 C   0  0  0  0  0  0  0  0  0  0  0  0
    7.6471   -2.7701   -4.7900 C   0  0  0  0  0  0  0  0  0  0  0  0
    6.6515   -2.9933   -3.8363 C   0  0  0  0  0  0  0  0  0  0  0  0
    7.6070   -3.4475   -5.9469 F   0  0  0  0  0  0  0  0  0  0  0  0
    4.6106   -3.0605   -1.2273 C   0  0  0  0  0  0  0  0  0  0  0  0
    4.4544   -3.5386    0.2328 C   0  0  0  0  0  0  0  0  0  0  0  0
    3.9612   -4.9297    0.3570 N   0  0  0  0  0  0  0  0  0  0  0  0
    2.4954   -5.0734    0.3990 C   0  0  0  0  0  0  0  0  0  0  0  0
    1.8857   -5.2181    1.7854 C   0  0  0  0  0  0  0  0  0  0  0  0
    2.5846   -5.0023    2.9774 C   0  0  0  0  0  0  0  0  0  0  0  0
    1.9534   -5.1372    4.2306 C   0  0  0  0  0  0  0  0  0  0  0  0
    0.5780   -5.4491    4.3161 C   0  0  0  0  0  0  0  0  0  0  0  0
   -0.1359   -5.6688    3.1239 C   0  0  0  0  0  0  0  0  0  0  0  0
    0.5265   -5.5431    1.8873 C   0  0  0  0  0  0  0  0  0  0  0  0
   -1.4587   -5.9947    2.9634 O   0  0  0  0  0  0  0  0  0  0  0  0
   -2.2705   -6.1821    4.1128 C   0  0  0  0  0  0  0  0  0  0  0  0
   -0.0759   -5.6369    5.5083 O   0  0  0  0  0  0  0  0  0  0  0  0
    0.2164   -4.7046    6.5442 C   0  0  0  0  0  0  0  0  0  0  0  0
    2.6437   -4.9180    5.3991 O   0  0  0  0  0  0  0  0  0  0  0  0
    3.9916   -5.3747    5.4008 C   0  0  0  0  0  0  0  0  0  0  0  0
    4.8352   -6.0259    0.1723 C   0  0  0  0  0  0  0  0  0  0  0  0
    6.4900   -5.8740   -0.0649 S   0  0  0  0  0  0  0  0  0  0  0  0
    4.1849   -7.2415    0.1941 N   0  0  0  0  0  0  0  0  0  0  0  0
    4.5440   -8.5499   -0.3998 C   0  0  0  0  0  0  0  0  0  0  0  0
    5.6838   -9.2450    0.3540 C   0  0  0  0  0  0  0  0  0  0  0  0
    3.3004   -9.4513   -0.2634 C   0  0  0  0  0  0  0  0  0  0  0  0
    4.8551   -8.4249   -1.9026 C   0  0  0  0  0  0  0  0  0  0  0  0
    4.7382   -0.2067    0.3978 H   0  0  0  0  0  0  0  0  0  0  0  0
    6.3544    0.3509    0.8366 H   0  0  0  0  0  0  0  0  0  0  0  0
    5.7965   -1.2255    1.3923 H   0  0  0  0  0  0  0  0  0  0  0  0
    8.0260    0.0674   -0.9028 H   0  0  0  0  0  0  0  0  0  0  0  0
    9.5128   -0.3954   -3.2263 H   0  0  0  0  0  0  0  0  0  0  0  0
    9.4301   -1.7241   -5.3431 H   0  0  0  0  0  0  0  0  0  0  0  0
    5.8698   -3.7154   -4.0413 H   0  0  0  0  0  0  0  0  0  0  0  0
    4.6656   -3.9297   -1.8923 H   0  0  0  0  0  0  0  0  0  0  0  0
    3.7070   -2.5151   -1.5292 H   0  0  0  0  0  0  0  0  0  0  0  0
    3.7515   -2.8815    0.7601 H   0  0  0  0  0  0  0  0  0  0  0  0
    5.3983   -3.4658    0.7790 H   0  0  0  0  0  0  0  0  0  0  0  0
    2.2159   -5.9466   -0.1992 H   0  0  0  0  0  0  0  0  0  0  0  0
    2.0479   -4.2092   -0.1082 H   0  0  0  0  0  0  0  0  0  0  0  0
    3.6249   -4.6967    2.9288 H   0  0  0  0  0  0  0  0  0  0  0  0
   -0.0489   -5.7019    0.9733 H   0  0  0  0  0  0  0  0  0  0  0  0
   -3.2773   -6.4338    3.7661 H   0  0  0  0  0  0  0  0  0  0  0  0
   -2.3647   -5.2588    4.6925 H   0  0  0  0  0  0  0  0  0  0  0  0
   -1.9127   -7.0202    4.7197 H   0  0  0  0  0  0  0  0  0  0  0  0
   -0.6865   -4.5891    7.1497 H   0  0  0  0  0  0  0  0  0  0  0  0
    0.4709   -3.7140    6.1567 H   0  0  0  0  0  0  0  0  0  0  0  0
    1.0030   -5.0942    7.1988 H   0  0  0  0  0  0  0  0  0  0  0  0
    4.3247   -5.4345    6.4409 H   0  0  0  0  0  0  0  0  0  0  0  0
    4.6369   -4.6632    4.8782 H   0  0  0  0  0  0  0  0  0  0  0  0
    4.0784   -6.3751    4.9637 H   0  0  0  0  0  0  0  0  0  0  0  0
    3.5244   -7.3111    0.9568 H   0  0  0  0  0  0  0  0  0  0  0  0
    5.5028   -9.2226    1.4349 H   0  0  0  0  0  0  0  0  0  0  0  0
    6.6586   -8.7887    0.1691 H   0  0  0  0  0  0  0  0  0  0  0  0
    5.7597  -10.2945    0.0480 H   0  0  0  0  0  0  0  0  0  0  0  0
    3.0654   -9.6348    0.7911 H   0  0  0  0  0  0  0  0  0  0  0  0
    3.4607  -10.4214   -0.7452 H   0  0  0  0  0  0  0  0  0  0  0  0
    2.4174   -8.9885   -0.7182 H   0  0  0  0  0  0  0  0  0  0  0  0
    5.7692   -7.8581   -2.0995 H   0  0  0  0  0  0  0  0  0  0  0  0
    4.0371   -7.9270   -2.4373 H   0  0  0  0  0  0  0  0  0  0  0  0
    4.9914   -9.4106   -2.3599 H   0  0  0  0  0  0  0  0  0  0  0  0
  1  2  1  0  0  0  0
  1 35  1  0  0  0  0
  1 36  1  0  0  0  0
  1 37  1  0  0  0  0
  2  3  2  0  0  0  0
  2  6  1  0  0  0  0
  3  4  1  0  0  0  0
  3 12  1  0  0  0  0
  4  5  2  0  0  0  0
  4 10  1  0  0  0  0
  5  6  1  0  0  0  0
  5  7  1  0  0  0  0
  6 38  1  0  0  0  0
  7  8  2  0  0  0  0
  7 39  1  0  0  0  0
  8  9  1  0  0  0  0
  8 40  1  0  0  0  0
  9 10  2  0  0  0  0
  9 11  1  0  0  0  0
 10 41  1  0  0  0  0
 12 13  1  0  0  0  0
 12 42  1  0  0  0  0
 12 43  1  0  0  0  0
 13 14  1  0  0  0  0
 13 44  1  0  0  0  0
 13 45  1  0  0  0  0
 14 15  1  0  0  0  0
 14 28  1  0  0  0  0
 15 16  1  0  0  0  0
 15 46  1  0  0  0  0
 15 47  1  0  0  0  0
 16 17  2  0  0  0  0
 16 21  1  0  0  0  0
 17 18  1  0  0  0  0
 17 48  1  0  0  0  0
 18 19  2  0  0  0  0
 18 26  1  0  0  0  0
 19 20  1  0  0  0  0
 19 24  1  0  0  0  0
 20 21  2  0  0  0  0
 20 22  1  0  0  0  0
 21 49  1  0  0  0  0
 22 23  1  0  0  0  0
 23 50  1  0  0  0  0
 23 51  1  0  0  0  0
 23 52  1  0  0  0  0
 24 25  1  0  0  0  0
 25 53  1  0  0  0  0
 25 54  1  0  0  0  0
 25 55  1  0  0  0  0
 26 27  1  0  0  0  0
 27 56  1  0  0  0  0
 27 57  1  0  0  0  0
 27 58  1  0  0  0  0
 28 29  2  0  0  0  0
 28 30  1  0  0  0  0
 30 31  1  0  0  0  0
 30 59  1  0  0  0  0
 31 32  1  0  0  0  0
 31 33  1  0  0  0  0
 31 34  1  0  0  0  0
 32 60  1  0  0  0  0
 32 61  1  0  0  0  0
 32 62  1  0  0  0  0
 33 63  1  0  0  0  0
 33 64  1  0  0  0  0
 33 65  1  0  0  0  0
 34 66  1  0  0  0  0
 34 67  1  0  0  0  0
 34 68  1  0  0  0  0
M  END
