
 OpenBabel10072620103D

 86 90  0  0  0  0  0  0  0  0999 V2000
   -1.7423    9.2509    1.1983 C   0  0  0  0  0  0  0  0  0  0  0  0
   -2.4263    8.1351    0.4651 C   0  0  0  0  0  0  0  0  0  0  0  0
   -1.6861    7.1537   -0.2068 C   0  0  0  0  0  0  0  0  0  0  0  0
   -2.3274    6.1150   -0.8919 C   0  0  0  0  0  0  0  0  0  0  0  0
   -3.7249    6.0481   -0.8861 C   0  0  0  0  0  0  0  0  0  0  0  0
   -4.4736    7.0700   -0.2878 C   0  0  0  0  0  0  0  0  0  0  0  0
   -3.8234    8.1026    0.3917 C   0  0  0  0  0  0  0  0  0  0  0  0
   -4.5690    4.7196   -1.7414 S   0  0  0  0  0  0  0  0  0  0  0  0
   -5.9742    5.0680   -1.8290 O   0  0  0  0  0  0  0  0  0  0  0  0
   -3.8339    4.5240   -2.9742 O   0  0  0  0  0  0  0  0  0  0  0  0
   -4.4200    3.3491   -0.7555 N   0  0  0  0  0  0  0  0  0  0  0  0
   -3.1286    2.6061   -0.7622 C   0  0  0  0  0  0  0  0  0  0  0  0
   -2.8621    1.6332   -1.9084 C   0  0  0  0  0  0  0  0  0  0  0  0
   -3.1145    0.2527   -1.7722 C   0  0  0  0  0  0  0  0  0  0  0  0
   -2.7324   -0.6643   -2.7779 C   0  0  0  0  0  0  0  0  0  0  0  0
   -2.1957   -0.1760   -3.9773 C   0  0  0  0  0  0  0  0  0  0  0  0
   -1.9348    1.1829   -4.1233 C   0  0  0  0  0  0  0  0  0  0  0  0
   -2.2346    2.0682   -3.0858 C   0  0  0  0  0  0  0  0  0  0  0  0
   -2.8768   -2.1575   -2.5587 C   0  0  0  0  0  0  0  0  0  0  0  0
   -1.7102   -3.0295   -2.8803 N   0  0  0  0  0  0  0  0  0  0  0  0
   -0.1966   -2.6271   -2.2404 S   0  0  0  0  0  0  0  0  0  0  0  0
    0.8239   -3.4725   -2.8281 O   0  0  0  0  0  0  0  0  0  0  0  0
    0.0109   -1.1965   -2.2884 O   0  0  0  0  0  0  0  0  0  0  0  0
   -0.3101   -3.0332   -0.5131 C   0  0  0  0  0  0  0  0  0  0  0  0
    0.2052   -4.2496   -0.0610 C   0  0  0  0  0  0  0  0  0  0  0  0
    0.2008   -4.5338    1.3024 C   0  0  0  0  0  0  0  0  0  0  0  0
   -0.2870   -3.5939    2.2194 C   0  0  0  0  0  0  0  0  0  0  0  0
   -0.8128   -2.3777    1.7557 C   0  0  0  0  0  0  0  0  0  0  0  0
   -0.8126   -2.0881    0.3901 C   0  0  0  0  0  0  0  0  0  0  0  0
   -0.2627   -3.8993    3.6878 C   0  0  0  0  0  0  0  0  0  0  0  0
   -2.1222   -4.6774   -2.7955 S   0  0  0  0  0  0  0  0  0  0  0  0
   -0.9923   -5.5498   -2.9966 O   0  0  0  0  0  0  0  0  0  0  0  0
   -2.9926   -4.8526   -1.6474 O   0  0  0  0  0  0  0  0  0  0  0  0
   -3.1275   -4.8737   -4.2507 C   0  0  0  0  0  0  0  0  0  0  0  0
   -2.5338   -4.6981   -5.5045 C   0  0  0  0  0  0  0  0  0  0  0  0
   -3.3140   -4.8375   -6.6478 C   0  0  0  0  0  0  0  0  0  0  0  0
   -4.6745   -5.1558   -6.5424 C   0  0  0  0  0  0  0  0  0  0  0  0
   -5.2513   -5.3437   -5.2802 C   0  0  0  0  0  0  0  0  0  0  0  0
   -4.4785   -5.2093   -4.1312 C   0  0  0  0  0  0  0  0  0  0  0  0
   -5.5068   -5.3285   -7.7756 C   0  0  0  0  0  0  0  0  0  0  0  0
   -5.1907    3.4584    0.7600 S   0  0  0  0  0  0  0  0  0  0  0  0
   -4.2972    2.9297    1.7729 O   0  0  0  0  0  0  0  0  0  0  0  0
   -5.7991    4.7524    0.9722 O   0  0  0  0  0  0  0  0  0  0  0  0
   -6.5647    2.3186    0.6530 C   0  0  0  0  0  0  0  0  0  0  0  0
   -6.6607    1.2516    1.5562 C   0  0  0  0  0  0  0  0  0  0  0  0
   -7.8264    0.4754    1.6108 C   0  0  0  0  0  0  0  0  0  0  0  0
   -8.9056    0.7641    0.7669 C   0  0  0  0  0  0  0  0  0  0  0  0
   -8.7913    1.8215   -0.1481 C   0  0  0  0  0  0  0  0  0  0  0  0
   -7.6329    2.6054   -0.1987 C   0  0  0  0  0  0  0  0  0  0  0  0
  -10.1817   -0.0265    0.8376 C   0  0  0  0  0  0  0  0  0  0  0  0
   -0.7577    8.9395    1.5592 H   0  0  0  0  0  0  0  0  0  0  0  0
   -2.3257    9.5494    2.0761 H   0  0  0  0  0  0  0  0  0  0  0  0
   -1.6220   10.1171    0.5405 H   0  0  0  0  0  0  0  0  0  0  0  0
   -0.5996    7.1975   -0.1928 H   0  0  0  0  0  0  0  0  0  0  0  0
   -1.7245    5.3845   -1.4277 H   0  0  0  0  0  0  0  0  0  0  0  0
   -5.5637    7.0650   -0.3336 H   0  0  0  0  0  0  0  0  0  0  0  0
   -4.4164    8.8813    0.8696 H   0  0  0  0  0  0  0  0  0  0  0  0
   -3.0311    1.9910    0.1398 H   0  0  0  0  0  0  0  0  0  0  0  0
   -2.2888    3.3055   -0.6753 H   0  0  0  0  0  0  0  0  0  0  0  0
   -3.5569   -0.1322   -0.8532 H   0  0  0  0  0  0  0  0  0  0  0  0
   -1.9157   -0.8524   -4.7826 H   0  0  0  0  0  0  0  0  0  0  0  0
   -1.4624    1.5570   -5.0296 H   0  0  0  0  0  0  0  0  0  0  0  0
   -1.9576    3.1117   -3.2163 H   0  0  0  0  0  0  0  0  0  0  0  0
   -3.7262   -2.4480   -3.1917 H   0  0  0  0  0  0  0  0  0  0  0  0
   -3.1848   -2.3521   -1.5235 H   0  0  0  0  0  0  0  0  0  0  0  0
    0.6270   -4.9723   -0.7581 H   0  0  0  0  0  0  0  0  0  0  0  0
    0.6002   -5.4855    1.6499 H   0  0  0  0  0  0  0  0  0  0  0  0
   -1.1960   -1.6417    2.4625 H   0  0  0  0  0  0  0  0  0  0  0  0
   -1.1680   -1.1187    0.0472 H   0  0  0  0  0  0  0  0  0  0  0  0
    0.4788   -4.6725    3.9204 H   0  0  0  0  0  0  0  0  0  0  0  0
   -1.2474   -4.2434    4.0220 H   0  0  0  0  0  0  0  0  0  0  0  0
    0.0260   -2.9993    4.2392 H   0  0  0  0  0  0  0  0  0  0  0  0
   -1.4749   -4.4654   -5.5997 H   0  0  0  0  0  0  0  0  0  0  0  0
   -2.8505   -4.7060   -7.6245 H   0  0  0  0  0  0  0  0  0  0  0  0
   -6.3040   -5.6078   -5.1986 H   0  0  0  0  0  0  0  0  0  0  0  0
   -4.9441   -5.3679   -3.1612 H   0  0  0  0  0  0  0  0  0  0  0  0
   -4.9303   -5.0600   -8.6671 H   0  0  0  0  0  0  0  0  0  0  0  0
   -6.3880   -4.6812   -7.7342 H   0  0  0  0  0  0  0  0  0  0  0  0
   -5.8278   -6.3708   -7.8691 H   0  0  0  0  0  0  0  0  0  0  0  0
   -5.8647    1.0445    2.2668 H   0  0  0  0  0  0  0  0  0  0  0  0
   -7.8996   -0.3317    2.3411 H   0  0  0  0  0  0  0  0  0  0  0  0
   -9.6245    2.0697   -0.8034 H   0  0  0  0  0  0  0  0  0  0  0  0
   -7.6061    3.4610   -0.8698 H   0  0  0  0  0  0  0  0  0  0  0  0
  -10.1332   -0.8056    1.6070 H   0  0  0  0  0  0  0  0  0  0  0  0
  -10.3698   -0.5106   -0.1262 H   0  0  0  0  0  0  0  0  0  0  0  0
  -11.0261    0.6295    1.0800 H   0  0  0  0  0  0  0  0  0  0  0  0
  1  2  1  0  0  0  0
  1 51  1  0  0  0  0
  1 52  1  0  0  0  0
  1 53  1  0  0  0  0
  2  3  2  0  0  0  0
  2  7  1  0  0  0  0
  3  4  1  0  0  0  0
  3 54  1  0  0  0  0
  4  5  2  0  0  0  0
  4 55  1  0  0  0  0
  5  6  1  0  0  0  0
  5  8  1  0  0  0  0
  6  7  2  0  0  0  0
  6 56  1  0  0  0  0
  7 57  1  0  0  0  0
  8  9  2  0  0  0  0
  8 10  2  0  0  0  0
  8 11  1  0  0  0  0
 11 12  1  0  0  0  0
 11 41  1  0  0  0  0
 12 13  1  0  0  0  0
 12 58  1  0  0  0  0
 12 59  1  0  0  0  0
 13 14  2  0  0  0  0
 13 18  1  0  0  0  0
 14 15  1  0  0  0  0
 14 60  1  0  0  0  0
 15 16  2  0  0  0  0
 15 19  1  0  0  0  0
 16 17  1  0  0  0  0
 16 61  1  0  0  0  0
 17 18  2  0  0  0  0
 17 62  1  0  0  0  0
 18 63  1  0  0  0  0
 19 20  1  0  0  0  0
 19 64  1  0  0  0  0
 19 65  1  0  0  0  0
 20 21  1  0  0  0  0
 20 31  1  0  0  0  0
 21 22  2  0  0  0  0
 21 23  2  0  0  0  0
 21 24  1  0  0  0  0
 24 25  2  0  0  0  0
 24 29  1  0  0  0  0
 25 26  1  0  0  0  0
 25 66  1  0  0  0  0
 26 27  2  0  0  0  0
 26 67  1  0  0  0  0
 27 28  1  0  0  0  0
 27 30  1  0  0  0  0
 28 29  2  0  0  0  0
 28 68  1  0  0  0  0
 29 69  1  0  0  0  0
 30 70  1  0  0  0  0
 30 71  1  0  0  0  0
 30 72  1  0  0  0  0
 31 32  2  0  0  0  0
 31 33  2  0  0  0  0
 31 34  1  0  0  0  0
 34 35  2  0  0  0  0
 34 39  1  0  0  0  0
 35 36  1  0  0  0  0
 35 73  1  0  0  0  0
 36 37  2  0  0  0  0
 36 74  1  0  0  0  0
 37 38  1  0  0  0  0
 37 40  1  0  0  0  0
 38 39  2  0  0  0  0
 38 75  1  0  0  0  0
 39 76  1  0  0  0  0
 40 77  1  0  0  0  0
 40 78  1  0  0  0  0
 40 79  1  0  0  0  0
 41 42  2  0  0  0  0
 41 43  2  0  0  0  0
 41 44  1  0  0  0  0
 44 45  2  0  0  0  0
 44 49  1  0  0  0  0
 45 46  1  0  0  0  0
 45 80  1  0  0  0  0
 46 47  2  0  0  0  0
 46 81  1  0  0  0  0
 47 48  1  0  0  0  0
 47 50  1  0  0  0  0
 48 49  2  0  0  0  0
 48 82  1  0  0  0  0
 49 83  1  0  0  0  0
 50 84  1  0  0  0  0
 50 85  1  0  0  0  0
 50 86  1  0  0  0  0
M  END
