
 OpenBabel10072619523D

 41 42  0  0  0  0  0  0  0  0999 V2000
    1.1666   -0.4955   -0.1308 C   0  0  0  0  0  0  0  0  0  0  0  0
    2.6087   -0.4803   -0.6135 C   0  0  0  0  0  0  0  0  0  0  0  0
    2.9993    0.8897   -1.1580 C   0  0  0  0  0  0  0  0  0  0  0  0
    4.3716    0.9040   -1.6351 N   0  0  0  0  0  0  0  0  0  0  0  0
    4.7911    1.9280   -2.4677 C   0  0  0  0  0  0  0  0  0  0  0  0
    4.0255    2.7965   -2.8684 O   0  0  0  0  0  0  0  0  0  0  0  0
    6.1292    1.7984   -2.7799 N   0  0  0  0  0  0  0  0  0  0  0  0
    6.8886    2.5966   -3.6625 C   0  0  0  0  0  0  0  0  0  0  0  0
    6.3621    3.6731   -4.3815 C   0  0  0  0  0  0  0  0  0  0  0  0
    7.1578    4.3931   -5.2777 C   0  0  0  0  0  0  0  0  0  0  0  0
    8.4985    4.0470   -5.4442 C   0  0  0  0  0  0  0  0  0  0  0  0
    9.0461    2.9758   -4.7342 C   0  0  0  0  0  0  0  0  0  0  0  0
    8.2380    2.2573   -3.8456 C   0  0  0  0  0  0  0  0  0  0  0  0
    9.4942    4.9189   -6.6316 S   0  0  0  0  0  0  0  0  0  0  0  0
   10.3893    3.9516   -7.2315 O   0  0  0  0  0  0  0  0  0  0  0  0
    8.6210    5.7347   -7.4479 O   0  0  0  0  0  0  0  0  0  0  0  0
   10.4269    5.8899   -5.6646 N   0  0  0  0  0  0  0  0  0  0  0  0
   10.0669    7.1010   -5.1056 C   0  0  0  0  0  0  0  0  0  0  0  0
   10.9702    7.7620   -4.3743 N   0  0  0  0  0  0  0  0  0  0  0  0
   10.3522    8.9292   -3.9675 O   0  0  0  0  0  0  0  0  0  0  0  0
    9.0831    8.9565   -4.4541 C   0  0  0  0  0  0  0  0  0  0  0  0
    8.8514    7.8115   -5.1778 C   0  0  0  0  0  0  0  0  0  0  0  0
    8.2838   10.1541   -4.1404 C   0  0  0  0  0  0  0  0  0  0  0  0
    0.8967   -1.4888    0.2418 H   0  0  0  0  0  0  0  0  0  0  0  0
    0.4789   -0.2454   -0.9447 H   0  0  0  0  0  0  0  0  0  0  0  0
    1.0170    0.2254    0.6796 H   0  0  0  0  0  0  0  0  0  0  0  0
    2.7374   -1.2421   -1.3918 H   0  0  0  0  0  0  0  0  0  0  0  0
    3.2718   -0.7585    0.2141 H   0  0  0  0  0  0  0  0  0  0  0  0
    2.9194    1.6536   -0.3765 H   0  0  0  0  0  0  0  0  0  0  0  0
    2.3273    1.1805   -1.9742 H   0  0  0  0  0  0  0  0  0  0  0  0
    5.0662    0.5482   -0.9963 H   0  0  0  0  0  0  0  0  0  0  0  0
    6.5910    0.9878   -2.3979 H   0  0  0  0  0  0  0  0  0  0  0  0
    5.3201    3.9632   -4.2920 H   0  0  0  0  0  0  0  0  0  0  0  0
    6.7118    5.2041   -5.8493 H   0  0  0  0  0  0  0  0  0  0  0  0
   10.0868    2.6886   -4.8714 H   0  0  0  0  0  0  0  0  0  0  0  0
    8.6770    1.4201   -3.3093 H   0  0  0  0  0  0  0  0  0  0  0  0
   11.4058    5.6269   -5.5943 H   0  0  0  0  0  0  0  0  0  0  0  0
    7.9418    7.5562   -5.7017 H   0  0  0  0  0  0  0  0  0  0  0  0
    8.4973   10.9522   -4.8589 H   0  0  0  0  0  0  0  0  0  0  0  0
    8.5127   10.5220   -3.1353 H   0  0  0  0  0  0  0  0  0  0  0  0
    7.2130    9.9317   -4.1843 H   0  0  0  0  0  0  0  0  0  0  0  0
  1  2  1  0  0  0  0
  1 24  1  0  0  0  0
  1 25  1  0  0  0  0
  1 26  1  0  0  0  0
  2  3  1  0  0  0  0
  2 27  1  0  0  0  0
  2 28  1  0  0  0  0
  3  4  1  0  0  0  0
  3 29  1  0  0  0  0
  3 30  1  0  0  0  0
  4  5  1  0  0  0  0
  4 31  1  0  0  0  0
  5  6  2  0  0  0  0
  5  7  1  0  0  0  0
  7  8  1  0  0  0  0
  7 32  1  0  0  0  0
  8  9  2  0  0  0  0
  8 13  1  0  0  0  0
  9 10  1  0  0  0  0
  9 33  1  0  0  0  0
 10 11  2  0  0  0  0
 10 34  1  0  0  0  0
 11 12  1  0  0  0  0
 11 14  1  0  0  0  0
 12 13  2  0  0  0  0
 12 35  1  0  0  0  0
 13 36  1  0  0  0  0
 14 15  2  0  0  0  0
 14 16  2  0  0  0  0
 14 17  1  0  0  0  0
 17 18  1  0  0  0  0
 17 37  1  0  0  0  0
 18 19  2  0  0  0  0
 18 22  1  0  0  0  0
 19 20  1  0  0  0  0
 20 21  1  0  0  0  0
 21 22  2  0  0  0  0
 21 23  1  0  0  0  0
 22 38  1  0  0  0  0
 23 39  1  0  0  0  0
 23 40  1  0  0  0  0
 23 41  1  0  0  0  0
M  END
