
 OpenBabel10072619443D

  8  7  0  0  0  0  0  0  0  0999 V2000
    1.1038    0.0576   -0.0089 C   0  0  0  0  0  0  0  0  0  0  0  0
    2.4427    0.0376   -0.0544 C   0  0  0  0  0  0  0  0  0  0  0  0
    3.2464   -0.4889   -1.2518 C   0  0  0  0  0  0  0  0  0  0  0  0
    2.5767   -0.9209   -2.2302 O   0  0  0  0  0  0  0  0  0  0  0  0
    4.4985   -0.4170   -1.0921 O   0  5  0  0  0  0  0  0  0  0  0  0
    0.5781    0.4383    0.8567 H   0  0  0  0  0  0  0  0  0  0  0  0
    0.5233   -0.3122   -0.8499 H   0  0  0  0  0  0  0  0  0  0  0  0
    3.0241    0.4066    0.7845 H   0  0  0  0  0  0  0  0  0  0  0  0
  1  2  2  0  0  0  0
  1  6  1  0  0  0  0
  1  7  1  0  0  0  0
  2  3  1  0  0  0  0
  2  8  1  0  0  0  0
  3  4  2  0  0  0  0
  3  5  1  0  0  0  0
M  CHG  1   5  -1
M  END
