
 OpenBabel10072619433D

 53 55  0  0  0  0  0  0  0  0999 V2000
    1.1372   -0.2071   -0.1984 C   0  0  0  0  0  0  0  0  0  0  0  0
    2.6308    0.0429   -0.2735 C   0  0  0  0  0  0  0  0  0  0  0  0
    3.0494    0.4166   -1.6364 N   0  0  0  0  0  0  0  0  0  0  0  0
    3.0803    1.7210   -2.1013 C   0  0  0  0  0  0  0  0  0  0  0  0
    3.7119    1.6865   -3.3474 C   0  0  0  0  0  0  0  0  0  0  0  0
    3.9659    2.8719   -4.0427 C   0  0  0  0  0  0  0  0  0  0  0  0
    3.5120    4.0661   -3.4599 C   0  0  0  0  0  0  0  0  0  0  0  0
    2.8299    4.0809   -2.2274 C   0  0  0  0  0  0  0  0  0  0  0  0
    2.6186    2.8959   -1.5130 C   0  0  0  0  0  0  0  0  0  0  0  0
    2.2880    5.3310   -1.6331 C   0  0  0  0  0  0  0  0  0  0  0  0
    1.7251    5.3502   -0.5513 O   0  0  0  0  0  0  0  0  0  0  0  0
    2.4736    6.3719   -2.4751 O   0  0  0  0  0  0  0  0  0  0  0  0
    1.9177    7.6274   -2.0522 C   0  0  0  0  0  0  0  0  0  0  0  0
    0.4709    7.7204   -2.5003 C   0  0  0  0  0  0  0  0  0  0  0  0
    3.9340    0.3278   -3.6340 N   0  3  0  0  0  0  0  0  0  0  0  0
    3.4941   -0.4319   -2.5905 C   0  0  0  0  0  0  0  0  0  0  0  0
    3.4385   -1.9391   -2.4465 C   0  0  0  0  0  0  0  0  0  0  0  0
    3.9874   -2.9072   -3.1896 C   0  0  0  0  0  0  0  0  0  0  0  0
    3.8084   -4.2575   -3.0141 N   0  0  0  0  0  0  0  0  0  0  0  0
    4.2308   -5.3107   -3.8510 C   0  0  0  0  0  0  0  0  0  0  0  0
    5.2523   -5.1857   -4.8010 C   0  0  0  0  0  0  0  0  0  0  0  0
    5.5893   -6.2531   -5.6409 C   0  0  0  0  0  0  0  0  0  0  0  0
    4.8988   -7.4585   -5.5535 C   0  0  0  0  0  0  0  0  0  0  0  0
    3.8798   -7.6025   -4.6181 C   0  0  0  0  0  0  0  0  0  0  0  0
    3.5532   -6.5389   -3.7727 C   0  0  0  0  0  0  0  0  0  0  0  0
    4.4802   -0.2623   -4.8742 C   0  0  0  0  0  0  0  0  0  0  0  0
    4.6834    0.6216   -6.0840 C   0  0  0  0  0  0  0  0  0  0  0  0
    0.8516   -0.5061    0.8146 H   0  0  0  0  0  0  0  0  0  0  0  0
    0.8350   -0.9967   -0.8930 H   0  0  0  0  0  0  0  0  0  0  0  0
    0.5784    0.6970   -0.4603 H   0  0  0  0  0  0  0  0  0  0  0  0
    3.1960   -0.8367    0.0503 H   0  0  0  0  0  0  0  0  0  0  0  0
    2.9156    0.8471    0.4145 H   0  0  0  0  0  0  0  0  0  0  0  0
    4.4769    2.9110   -4.9939 H   0  0  0  0  0  0  0  0  0  0  0  0
    3.6875    4.9987   -3.9985 H   0  0  0  0  0  0  0  0  0  0  0  0
    2.1064    2.8900   -0.5574 H   0  0  0  0  0  0  0  0  0  0  0  0
    2.5071    8.4172   -2.5291 H   0  0  0  0  0  0  0  0  0  0  0  0
    2.0176    7.7582   -0.9689 H   0  0  0  0  0  0  0  0  0  0  0  0
    0.3960    7.5952   -3.5858 H   0  0  0  0  0  0  0  0  0  0  0  0
    0.0353    8.6850   -2.2275 H   0  0  0  0  0  0  0  0  0  0  0  0
   -0.1309    6.9258   -2.0483 H   0  0  0  0  0  0  0  0  0  0  0  0
    2.8372   -2.2691   -1.6068 H   0  0  0  0  0  0  0  0  0  0  0  0
    4.6301   -2.6846   -4.0268 H   0  0  0  0  0  0  0  0  0  0  0  0
    3.1679   -4.5504   -2.2813 H   0  0  0  0  0  0  0  0  0  0  0  0
    5.8284   -4.2715   -4.8920 H   0  0  0  0  0  0  0  0  0  0  0  0
    6.3910   -6.1417   -6.3669 H   0  0  0  0  0  0  0  0  0  0  0  0
    5.1573   -8.2853   -6.2107 H   0  0  0  0  0  0  0  0  0  0  0  0
    3.3380   -8.5426   -4.5452 H   0  0  0  0  0  0  0  0  0  0  0  0
    2.7420   -6.6786   -3.0621 H   0  0  0  0  0  0  0  0  0  0  0  0
    3.7802   -1.0460   -5.1815 H   0  0  0  0  0  0  0  0  0  0  0  0
    5.4425   -0.7169   -4.6139 H   0  0  0  0  0  0  0  0  0  0  0  0
    3.7776    1.1791   -6.3380 H   0  0  0  0  0  0  0  0  0  0  0  0
    4.9443    0.0066   -6.9517 H   0  0  0  0  0  0  0  0  0  0  0  0
    5.5152    1.3144   -5.9324 H   0  0  0  0  0  0  0  0  0  0  0  0
  1  2  1  0  0  0  0
  1 28  1  0  0  0  0
  1 29  1  0  0  0  0
  1 30  1  0  0  0  0
  2  3  1  0  0  0  0
  2 31  1  0  0  0  0
  2 32  1  0  0  0  0
  3  4  1  0  0  0  0
  3 16  1  0  0  0  0
  4  5  2  0  0  0  0
  4  9  1  0  0  0  0
  5  6  1  0  0  0  0
  5 15  1  0  0  0  0
  6  7  2  0  0  0  0
  6 33  1  0  0  0  0
  7  8  1  0  0  0  0
  7 34  1  0  0  0  0
  8  9  2  0  0  0  0
  8 10  1  0  0  0  0
  9 35  1  0  0  0  0
 10 11  2  0  0  0  0
 10 12  1  0  0  0  0
 12 13  1  0  0  0  0
 13 14  1  0  0  0  0
 13 36  1  0  0  0  0
 13 37  1  0  0  0  0
 14 38  1  0  0  0  0
 14 39  1  0  0  0  0
 14 40  1  0  0  0  0
 15 16  2  0  0  0  0
 15 26  1  0  0  0  0
 16 17  1  0  0  0  0
 17 18  2  0  0  0  0
 17 41  1  0  0  0  0
 18 19  1  0  0  0  0
 18 42  1  0  0  0  0
 19 20  1  0  0  0  0
 19 43  1  0  0  0  0
 20 21  2  0  0  0  0
 20 25  1  0  0  0  0
 21 22  1  0  0  0  0
 21 44  1  0  0  0  0
 22 23  2  0  0  0  0
 22 45  1  0  0  0  0
 23 24  1  0  0  0  0
 23 46  1  0  0  0  0
 24 25  2  0  0  0  0
 24 47  1  0  0  0  0
 25 48  1  0  0  0  0
 26 27  1  0  0  0  0
 26 49  1  0  0  0  0
 26 50  1  0  0  0  0
 27 51  1  0  0  0  0
 27 52  1  0  0  0  0
 27 53  1  0  0  0  0
M  CHG  1  15   1
M  END
