
 OpenBabel10072616313D

 38 39  0  0  0  0  0  0  0  0999 V2000
    1.3930    2.8405    0.2174 C   0  0  0  0  0  0  0  0  0  0  0  0
    0.3895    1.8971   -0.2664 N   0  0  0  0  0  0  0  0  0  0  0  0
    0.8089    0.5040   -0.0360 C   0  0  0  0  0  0  0  0  0  0  0  0
   -0.2654   -0.5199   -0.4685 C   0  0  0  0  0  0  0  0  0  0  0  0
   -1.6030   -0.2778    0.1024 N   0  0  0  0  0  0  0  0  0  0  0  0
   -1.9895    1.1326   -0.0889 C   0  0  0  0  0  0  0  0  0  0  0  0
   -0.9179    2.1436    0.3692 C   0  0  0  0  0  0  0  0  0  0  0  0
   -1.7004   -0.6703    1.4564 N   0  0  0  0  0  0  0  0  0  0  0  0
   -2.7512   -1.4728    1.9123 C   0  0  0  0  0  0  0  0  0  0  0  0
   -4.0667   -1.9634    0.9981 S   0  0  0  0  0  0  0  0  0  0  0  0
   -2.5471   -1.8031    3.2484 N   0  0  0  0  0  0  0  0  0  0  0  0
   -3.4582   -2.5762    4.0890 C   0  0  0  0  0  0  0  0  0  0  0  0
   -4.5998   -1.7179    4.6610 C   0  0  0  0  0  0  0  0  0  0  0  0
   -4.4661   -1.8010    6.1781 C   0  0  0  0  0  0  0  0  0  0  0  0
   -3.7643   -3.1261    6.4171 C   0  0  0  0  0  0  0  0  0  0  0  0
   -2.7309   -3.1638    5.3040 C   0  0  0  0  0  0  0  0  0  0  0  0
    2.3553    2.6668   -0.2765 H   0  0  0  0  0  0  0  0  0  0  0  0
    1.5435    2.7679    1.3005 H   0  0  0  0  0  0  0  0  0  0  0  0
    1.0978    3.8684   -0.0209 H   0  0  0  0  0  0  0  0  0  0  0  0
    1.0471    0.3475    1.0242 H   0  0  0  0  0  0  0  0  0  0  0  0
    1.7232    0.3005   -0.6064 H   0  0  0  0  0  0  0  0  0  0  0  0
    0.0723   -1.5341   -0.2204 H   0  0  0  0  0  0  0  0  0  0  0  0
   -0.3549   -0.4945   -1.5624 H   0  0  0  0  0  0  0  0  0  0  0  0
   -2.9350    1.3421    0.4268 H   0  0  0  0  0  0  0  0  0  0  0  0
   -2.1903    1.2882   -1.1572 H   0  0  0  0  0  0  0  0  0  0  0  0
   -0.8269    2.1043    1.4630 H   0  0  0  0  0  0  0  0  0  0  0  0
   -1.2651    3.1505    0.1085 H   0  0  0  0  0  0  0  0  0  0  0  0
   -0.8586   -0.6532    2.0196 H   0  0  0  0  0  0  0  0  0  0  0  0
   -1.9109   -1.1981    3.7472 H   0  0  0  0  0  0  0  0  0  0  0  0
   -3.8819   -3.3957    3.4972 H   0  0  0  0  0  0  0  0  0  0  0  0
   -5.5630   -2.1436    4.3540 H   0  0  0  0  0  0  0  0  0  0  0  0
   -4.5782   -0.6773    4.3200 H   0  0  0  0  0  0  0  0  0  0  0  0
   -5.4340   -1.7432    6.6843 H   0  0  0  0  0  0  0  0  0  0  0  0
   -3.8425   -0.9755    6.5419 H   0  0  0  0  0  0  0  0  0  0  0  0
   -4.4709   -3.9577    6.3112 H   0  0  0  0  0  0  0  0  0  0  0  0
   -3.3081   -3.1846    7.4091 H   0  0  0  0  0  0  0  0  0  0  0  0
   -2.3683   -4.1786    5.1115 H   0  0  0  0  0  0  0  0  0  0  0  0
   -1.8639   -2.5525    5.5849 H   0  0  0  0  0  0  0  0  0  0  0  0
  1  2  1  0  0  0  0
  1 17  1  0  0  0  0
  1 18  1  0  0  0  0
  1 19  1  0  0  0  0
  2  3  1  0  0  0  0
  2  7  1  0  0  0  0
  3  4  1  0  0  0  0
  3 20  1  0  0  0  0
  3 21  1  0  0  0  0
  4  5  1  0  0  0  0
  4 22  1  0  0  0  0
  4 23  1  0  0  0  0
  5  6  1  0  0  0  0
  5  8  1  0  0  0  0
  6  7  1  0  0  0  0
  6 24  1  0  0  0  0
  6 25  1  0  0  0  0
  7 26  1  0  0  0  0
  7 27  1  0  0  0  0
  8  9  1  0  0  0  0
  8 28  1  0  0  0  0
  9 10  2  0  0  0  0
  9 11  1  0  0  0  0
 11 12  1  0  0  0  0
 11 29  1  0  0  0  0
 12 13  1  0  0  0  0
 12 16  1  0  0  0  0
 12 30  1  0  0  0  0
 13 14  1  0  0  0  0
 13 31  1  0  0  0  0
 13 32  1  0  0  0  0
 14 15  1  0  0  0  0
 14 33  1  0  0  0  0
 14 34  1  0  0  0  0
 15 16  1  0  0  0  0
 15 35  1  0  0  0  0
 15 36  1  0  0  0  0
 16 37  1  0  0  0  0
 16 38  1  0  0  0  0
M  END
