
 OpenBabel10072620043D

 65 68  0  0  1  0  0  0  0  0999 V2000
    3.8835    0.6349    6.0245 C   0  0  0  0  0  0  0  0  0  0  0  0
    4.8878    0.5553    4.8711 C   0  0  0  0  0  0  0  0  0  0  0  0
    4.5169    1.5760    3.7905 C   0  0  0  0  0  0  0  0  0  0  0  0
    6.2894    0.8846    5.4191 C   0  0  0  0  0  0  0  0  0  0  0  0
    6.5387    1.7930    6.2003 O   0  0  0  0  0  0  0  0  0  0  0  0
    7.2619    0.0764    4.9269 O   0  0  0  0  0  0  0  0  0  0  0  0
    4.7965   -0.7937    4.3781 O   0  0  0  0  0  0  0  0  0  0  0  0
    5.5498   -0.9835    3.2088 N   0  0  0  0  0  0  0  0  0  0  0  0
    5.2042   -2.0782    2.5812 C   0  0  0  0  0  0  0  0  0  0  0  0
    5.9542   -2.4008    1.3672 C   0  0  0  0  0  0  0  0  0  0  0  0
    6.6797   -1.4926    0.6174 C   0  0  0  0  0  0  0  0  0  0  0  0
    7.4210   -2.2825   -0.7081 S   0  0  0  0  0  0  0  0  0  0  0  0
    6.7671   -3.7755   -0.1783 C   0  0  0  0  0  0  0  0  0  0  0  0
    6.0295   -3.7165    0.9022 N   0  0  0  0  0  0  0  0  0  0  0  0
    7.0270   -4.9239   -0.8220 N   0  0  0  0  0  0  0  0  0  0  0  0
    4.1062   -3.0366    3.0723 C   0  0  0  0  0  0  0  0  0  0  0  0
    3.0252   -2.6308    3.4749 O   0  0  0  0  0  0  0  0  0  0  0  0
    4.4307   -4.3760    2.9912 N   0  0  0  0  0  0  0  0  0  0  0  0
    3.4374   -5.4335    3.2786 C   0  0  1  0  0  0  0  0  0  0  0  0
    2.3174   -5.6822    2.2183 C   0  0  2  0  0  0  0  0  0  0  0  0
    2.7530   -7.0818    2.2092 N   0  0  0  0  0  0  0  0  0  0  0  0
    3.8980   -6.8705    2.9146 C   0  0  0  0  0  0  0  0  0  0  0  0
    4.9209   -7.5066    3.0201 O   0  0  0  0  0  0  0  0  0  0  0  0
    2.5620   -7.9666    1.1762 C   0  0  0  0  0  0  0  0  0  0  0  0
    1.8785   -7.6261    0.0567 C   0  0  0  0  0  0  0  0  0  0  0  0
    1.3232   -6.2342   -0.1433 C   0  0  0  0  0  0  0  0  0  0  0  0
    2.4413   -4.9484    0.4971 S   0  0  3  0  0  0  0  0  0  0  0  0
    1.6556   -3.6718    0.5345 O   0  0  0  0  0  0  0  0  0  0  0  0
    1.5972   -8.5667   -1.0922 C   0  0  0  0  0  0  0  0  0  0  0  0
    2.8287   -8.2703   -2.4094 S   0  0  0  0  0  0  0  0  0  0  0  0
    2.5212   -9.6734   -3.4508 C   0  0  0  0  0  0  0  0  0  0  0  0
    1.4981   -9.6453   -4.3920 C   0  0  0  0  0  0  0  0  0  0  0  0
    1.3418  -10.7168   -5.2634 C   0  0  0  0  0  0  0  0  0  0  0  0
    2.1751  -11.7794   -5.2041 N   0  3  0  0  0  0  0  0  0  0  0  0
    3.1687  -11.8278   -4.2874 C   0  0  0  0  0  0  0  0  0  0  0  0
    3.3631  -10.7791   -3.3970 C   0  0  0  0  0  0  0  0  0  0  0  0
    2.0328  -12.8875   -6.1662 C   0  0  0  0  0  0  0  0  0  0  0  0
    3.1503   -9.3410    1.3418 C   0  0  0  0  0  0  0  0  0  0  0  0
    3.6034  -10.0571    0.4674 O   0  0  0  0  0  0  0  0  0  0  0  0
    3.0457   -9.7531    2.6195 O   0  0  0  0  0  0  0  0  0  0  0  0
    3.8546    1.6337    6.4736 H   0  0  0  0  0  0  0  0  0  0  0  0
    4.1406   -0.0833    6.8121 H   0  0  0  0  0  0  0  0  0  0  0  0
    2.8738    0.3797    5.6826 H   0  0  0  0  0  0  0  0  0  0  0  0
    4.4412    2.5871    4.2059 H   0  0  0  0  0  0  0  0  0  0  0  0
    3.5637    1.3207    3.3150 H   0  0  0  0  0  0  0  0  0  0  0  0
    5.2737    1.6119    2.9981 H   0  0  0  0  0  0  0  0  0  0  0  0
    6.8485   -0.5444    4.2815 H   0  0  0  0  0  0  0  0  0  0  0  0
    6.7931   -0.4279    0.7732 H   0  0  0  0  0  0  0  0  0  0  0  0
    7.8421   -4.9404   -1.4252 H   0  0  0  0  0  0  0  0  0  0  0  0
    6.9055   -5.7743   -0.2840 H   0  0  0  0  0  0  0  0  0  0  0  0
    5.2913   -4.6090    2.4904 H   0  0  0  0  0  0  0  0  0  0  0  0
    3.0704   -5.3659    4.3106 H   0  0  0  0  0  0  0  0  0  0  0  0
    1.3109   -5.5661    2.6393 H   0  0  0  0  0  0  0  0  0  0  0  0
    0.3451   -6.1472    0.3412 H   0  0  0  0  0  0  0  0  0  0  0  0
    1.1856   -6.0036   -1.2043 H   0  0  0  0  0  0  0  0  0  0  0  0
    0.5964   -8.3761   -1.4952 H   0  0  0  0  0  0  0  0  0  0  0  0
    1.6008   -9.6176   -0.7882 H   0  0  0  0  0  0  0  0  0  0  0  0
    0.8323   -8.7885   -4.4712 H   0  0  0  0  0  0  0  0  0  0  0  0
    0.5599  -10.7286   -6.0175 H   0  0  0  0  0  0  0  0  0  0  0  0
    3.8087  -12.7058   -4.2836 H   0  0  0  0  0  0  0  0  0  0  0  0
    4.1759  -10.8249   -2.6730 H   0  0  0  0  0  0  0  0  0  0  0  0
    1.1331  -12.7442   -6.7691 H   0  0  0  0  0  0  0  0  0  0  0  0
    1.9582  -13.8210   -5.6023 H   0  0  0  0  0  0  0  0  0  0  0  0
    2.9178  -12.8845   -6.8087 H   0  0  0  0  0  0  0  0  0  0  0  0
    3.5483  -10.5916    2.6703 H   0  0  0  0  0  0  0  0  0  0  0  0
  1  2  1  0  0  0  0
  1 41  1  0  0  0  0
  1 42  1  0  0  0  0
  1 43  1  0  0  0  0
  2  3  1  0  0  0  0
  2  4  1  0  0  0  0
  2  7  1  0  0  0  0
  3 44  1  0  0  0  0
  3 45  1  0  0  0  0
  3 46  1  0  0  0  0
  4  5  2  0  0  0  0
  4  6  1  0  0  0  0
  6 47  1  0  0  0  0
  7  8  1  0  0  0  0
  8  9  2  0  0  0  0
  9 10  1  0  0  0  0
  9 16  1  0  0  0  0
 10 11  2  0  0  0  0
 10 14  1  0  0  0  0
 11 12  1  0  0  0  0
 11 48  1  0  0  0  0
 12 13  1  0  0  0  0
 13 14  2  0  0  0  0
 13 15  1  0  0  0  0
 15 49  1  0  0  0  0
 15 50  1  0  0  0  0
 16 17  2  0  0  0  0
 16 18  1  0  0  0  0
 18 19  1  0  0  0  0
 18 51  1  0  0  0  0
 19 20  1  0  0  0  0
 19 22  1  0  0  0  0
 19 52  1  1  0  0  0
 20 21  1  0  0  0  0
 20 27  1  0  0  0  0
 20 53  1  1  0  0  0
 21 22  1  0  0  0  0
 21 24  1  0  0  0  0
 22 23  2  0  0  0  0
 24 25  2  0  0  0  0
 24 38  1  0  0  0  0
 25 26  1  0  0  0  0
 25 29  1  0  0  0  0
 26 27  1  0  0  0  0
 26 54  1  0  0  0  0
 26 55  1  0  0  0  0
 27 28  2  0  0  0  0
 29 30  1  0  0  0  0
 29 56  1  0  0  0  0
 29 57  1  0  0  0  0
 30 31  1  0  0  0  0
 31 32  2  0  0  0  0
 31 36  1  0  0  0  0
 32 33  1  0  0  0  0
 32 58  1  0  0  0  0
 33 34  2  0  0  0  0
 33 59  1  0  0  0  0
 34 35  1  0  0  0  0
 34 37  1  0  0  0  0
 35 36  2  0  0  0  0
 35 60  1  0  0  0  0
 36 61  1  0  0  0  0
 37 62  1  0  0  0  0
 37 63  1  0  0  0  0
 37 64  1  0  0  0  0
 38 39  2  0  0  0  0
 38 40  1  0  0  0  0
 40 65  1  0  0  0  0
M  CHG  1  34   1
M  END
