
 OpenBabel10072619563D

135139  0  0  1  0  0  0  0  0999 V2000
    4.9770    1.1910    0.2780 C   0  0  0  0  0  0  0  0  0  0  0  0
    3.7812    1.7451   -0.5271 C   0  0  2  0  0  0  0  0  0  0  0  0
    4.0980    3.1670   -1.0398 C   0  0  0  0  0  0  0  0  0  0  0  0
    4.3872    4.2350    0.0210 C   0  0  0  0  0  0  0  0  0  0  0  0
    4.7969    5.5790   -0.6164 C   0  0  0  0  0  0  0  0  0  0  0  0
    4.8547    6.6555    0.3905 N   0  0  0  0  0  0  0  0  0  0  0  0
    4.8618    7.9778   -0.2257 C   0  0  0  0  0  0  0  0  0  0  0  0
    5.8891    6.4919    1.4297 C   0  0  0  0  0  0  0  0  0  0  0  0
    7.2941    6.1637    0.9618 C   0  0  0  0  0  0  0  0  0  0  0  0
    8.0862    7.1098    0.2971 C   0  0  0  0  0  0  0  0  0  0  0  0
    9.3750    6.7852   -0.1347 C   0  0  0  0  0  0  0  0  0  0  0  0
    9.8862    5.5071    0.0850 C   0  0  0  0  0  0  0  0  0  0  0  0
    9.1184    4.5586    0.7558 C   0  0  0  0  0  0  0  0  0  0  0  0
    7.8369    4.8895    1.2012 C   0  0  0  0  0  0  0  0  0  0  0  0
    2.4745    1.4443    0.2471 C   0  0  1  0  0  0  0  0  0  0  0  0
    2.2955    2.0096    1.6907 C   0  0  0  0  0  0  0  0  0  0  0  0
    0.7725    1.9939    1.9667 C   0  0  0  0  0  0  0  0  0  0  0  0
    0.2426    1.1379    0.8229 C   0  0  2  0  0  0  0  0  0  0  0  0
    1.0660    1.6053   -0.4173 C   0  0  2  0  0  0  0  0  0  0  0  0
    0.7705    0.6827   -1.6467 C   0  0  2  0  0  0  0  0  0  0  0  0
   -0.7622    0.4645   -1.7985 C   0  0  0  0  0  0  0  0  0  0  0  0
   -1.3938   -0.1604   -0.5203 C   0  0  1  0  0  0  0  0  0  0  0  0
   -1.2561    0.8524    0.6642 C   0  0  3  0  0  0  0  0  0  0  0  0
   -2.2898    2.0034    0.5492 C   0  0  1  0  0  0  0  0  0  0  0  0
   -3.7188    1.4376    0.3407 C   0  0  0  0  0  0  0  0  0  0  0  0
   -3.7749   -0.0862    0.4094 C   0  0  3  0  0  0  0  0  0  0  0  0
   -2.8548   -0.7577   -0.6360 C   0  0  2  0  0  0  0  0  0  0  0  0
   -2.8156   -2.2873   -0.3029 C   0  0  0  0  0  0  0  0  0  0  0  0
   -4.0215   -2.8259    0.4726 C   0  0  0  0  0  0  0  0  0  0  0  0
   -5.3329   -2.1038    0.1857 C   0  0  2  0  0  0  0  0  0  0  0  0
   -5.2187   -0.5873    0.3871 C   0  0  0  0  0  0  0  0  0  0  0  0
   -6.3149   -2.6587    1.0645 O   0  0  0  0  0  0  0  0  0  0  0  0
   -7.6392   -2.2116    0.7877 C   0  0  0  0  0  0  0  0  0  0  0  0
   -8.5751   -2.8790    1.7797 C   0  0  0  0  0  0  0  0  0  0  0  0
   -9.9847   -2.3220    1.6512 C   0  0  0  0  0  0  0  0  0  0  0  0
  -10.8310   -2.9446    2.6598 N   0  0  0  0  0  0  0  0  0  0  0  0
  -12.0773   -2.6608    2.6548 C   0  0  0  0  0  0  0  0  0  0  0  0
  -12.7864   -1.8386    1.8491 N   0  0  0  0  0  0  0  0  0  0  0  0
  -12.8896   -3.2435    3.5614 N   0  0  0  0  0  0  0  0  0  0  0  0
   -3.4184   -0.5982   -2.0670 C   0  0  0  0  0  0  0  0  0  0  0  0
   -2.2605    2.8237    1.7289 O   0  0  0  0  0  0  0  0  0  0  0  0
   -3.0573    4.0103    1.6065 C   0  0  0  0  0  0  0  0  0  0  0  0
   -3.1764    4.7171    2.9503 C   0  0  0  0  0  0  0  0  0  0  0  0
   -1.8791    5.4276    3.3164 C   0  0  0  0  0  0  0  0  0  0  0  0
   -2.0923    6.2293    4.5230 N   0  0  0  0  0  0  0  0  0  0  0  0
   -1.1109    6.9406    4.9295 C   0  0  0  0  0  0  0  0  0  0  0  0
   -1.2541    7.6794    6.0530 N   0  0  0  0  0  0  0  0  0  0  0  0
    0.1238    7.0877    4.4065 N   0  0  0  0  0  0  0  0  0  0  0  0
    1.4680   -0.5687   -1.5123 O   0  0  0  0  0  0  0  0  0  0  0  0
    1.2902   -1.5440   -2.5485 C   0  0  0  0  0  0  0  0  0  0  0  0
    1.6872   -1.0718   -3.9515 C   0  0  0  0  0  0  0  0  0  0  0  0
    1.4818   -2.1700   -5.0016 C   0  0  0  0  0  0  0  0  0  0  0  0
    1.8847   -1.6685   -6.3137 N   0  0  0  0  0  0  0  0  0  0  0  0
    1.6582   -2.3943   -7.3476 C   0  0  0  0  0  0  0  0  0  0  0  0
    1.0934   -3.6174   -7.4616 N   0  0  0  0  0  0  0  0  0  0  0  0
    1.9790   -1.9251   -8.5715 N   0  0  0  0  0  0  0  0  0  0  0  0
    0.7993    3.0775   -0.8078 C   0  0  0  0  0  0  0  0  0  0  0  0
    5.0855    1.6870    1.2481 H   0  0  0  0  0  0  0  0  0  0  0  0
    4.8626    0.1171    0.4732 H   0  0  0  0  0  0  0  0  0  0  0  0
    5.9156    1.3151   -0.2717 H   0  0  0  0  0  0  0  0  0  0  0  0
    3.7308    1.1248   -1.4357 H   0  0  0  0  0  0  0  0  0  0  0  0
    3.3110    3.5040   -1.7209 H   0  0  0  0  0  0  0  0  0  0  0  0
    4.9966    3.0754   -1.6684 H   0  0  0  0  0  0  0  0  0  0  0  0
    5.1819    3.8756    0.6892 H   0  0  0  0  0  0  0  0  0  0  0  0
    3.4901    4.4116    0.6203 H   0  0  0  0  0  0  0  0  0  0  0  0
    5.7552    5.4817   -1.1465 H   0  0  0  0  0  0  0  0  0  0  0  0
    4.0446    5.8458   -1.3773 H   0  0  0  0  0  0  0  0  0  0  0  0
    5.6491    8.0856   -0.9796 H   0  0  0  0  0  0  0  0  0  0  0  0
    3.8944    8.1663   -0.7087 H   0  0  0  0  0  0  0  0  0  0  0  0
    4.9808    8.7678    0.5284 H   0  0  0  0  0  0  0  0  0  0  0  0
    5.9406    7.3831    2.0754 H   0  0  0  0  0  0  0  0  0  0  0  0
    5.5507    5.7026    2.1149 H   0  0  0  0  0  0  0  0  0  0  0  0
    7.7045    8.1084    0.1055 H   0  0  0  0  0  0  0  0  0  0  0  0
    9.9811    7.5332   -0.6400 H   0  0  0  0  0  0  0  0  0  0  0  0
   10.8846    5.2535   -0.2614 H   0  0  0  0  0  0  0  0  0  0  0  0
    9.5173    3.5639    0.9408 H   0  0  0  0  0  0  0  0  0  0  0  0
    7.2578    4.1366    1.7316 H   0  0  0  0  0  0  0  0  0  0  0  0
    2.5716    0.3586    0.4168 H   0  0  0  0  0  0  0  0  0  0  0  0
    2.6827    3.0182    1.8190 H   0  0  0  0  0  0  0  0  0  0  0  0
    2.8159    1.3650    2.4134 H   0  0  0  0  0  0  0  0  0  0  0  0
    0.5501    1.5643    2.9484 H   0  0  0  0  0  0  0  0  0  0  0  0
    0.3736    3.0145    1.9527 H   0  0  0  0  0  0  0  0  0  0  0  0
    0.6226    0.1251    1.0678 H   0  0  0  0  0  0  0  0  0  0  0  0
    1.1654    1.1737   -2.5448 H   0  0  0  0  0  0  0  0  0  0  0  0
   -0.9292   -0.1875   -2.6580 H   0  0  0  0  0  0  0  0  0  0  0  0
   -1.2454    1.4175   -2.0415 H   0  0  0  0  0  0  0  0  0  0  0  0
   -0.7352   -1.0034   -0.2730 H   0  0  0  0  0  0  0  0  0  0  0  0
   -1.4974    0.3231    1.5981 H   0  0  0  0  0  0  0  0  0  0  0  0
   -2.0552    2.6450   -0.3026 H   0  0  0  0  0  0  0  0  0  0  0  0
   -4.4174    1.8207    1.0911 H   0  0  0  0  0  0  0  0  0  0  0  0
   -4.1018    1.7838   -0.6268 H   0  0  0  0  0  0  0  0  0  0  0  0
   -3.4102   -0.3623    1.4093 H   0  0  0  0  0  0  0  0  0  0  0  0
   -2.7013   -2.8634   -1.2286 H   0  0  0  0  0  0  0  0  0  0  0  0
   -1.9345   -2.5360    0.3027 H   0  0  0  0  0  0  0  0  0  0  0  0
   -3.8125   -2.7756    1.5502 H   0  0  0  0  0  0  0  0  0  0  0  0
   -4.1362   -3.8975    0.2692 H   0  0  0  0  0  0  0  0  0  0  0  0
   -5.6322   -2.3269   -0.8452 H   0  0  0  0  0  0  0  0  0  0  0  0
   -5.8037   -0.0782   -0.3900 H   0  0  0  0  0  0  0  0  0  0  0  0
   -5.6784   -0.2921    1.3389 H   0  0  0  0  0  0  0  0  0  0  0  0
   -7.9137   -2.4810   -0.2379 H   0  0  0  0  0  0  0  0  0  0  0  0
   -7.7073   -1.1232    0.8926 H   0  0  0  0  0  0  0  0  0  0  0  0
   -8.1966   -2.7404    2.7997 H   0  0  0  0  0  0  0  0  0  0  0  0
   -8.5693   -3.9622    1.6119 H   0  0  0  0  0  0  0  0  0  0  0  0
  -10.3664   -2.5264    0.6448 H   0  0  0  0  0  0  0  0  0  0  0  0
   -9.9600   -1.2375    1.8037 H   0  0  0  0  0  0  0  0  0  0  0  0
  -13.5317   -1.3673    2.3502 H   0  0  0  0  0  0  0  0  0  0  0  0
  -12.2228   -1.1790    1.3272 H   0  0  0  0  0  0  0  0  0  0  0  0
  -12.3669   -3.9536    4.0679 H   0  0  0  0  0  0  0  0  0  0  0  0
  -13.7025   -3.6602    3.1261 H   0  0  0  0  0  0  0  0  0  0  0  0
   -2.8222   -1.1648   -2.7909 H   0  0  0  0  0  0  0  0  0  0  0  0
   -4.4375   -0.9779   -2.1618 H   0  0  0  0  0  0  0  0  0  0  0  0
   -3.4363    0.4492   -2.3826 H   0  0  0  0  0  0  0  0  0  0  0  0
   -2.6084    4.6701    0.8587 H   0  0  0  0  0  0  0  0  0  0  0  0
   -4.0693    3.7726    1.2650 H   0  0  0  0  0  0  0  0  0  0  0  0
   -3.4405    3.9906    3.7275 H   0  0  0  0  0  0  0  0  0  0  0  0
   -3.9888    5.4525    2.8942 H   0  0  0  0  0  0  0  0  0  0  0  0
   -1.0888    4.6868    3.4788 H   0  0  0  0  0  0  0  0  0  0  0  0
   -1.5927    6.0804    2.4838 H   0  0  0  0  0  0  0  0  0  0  0  0
   -0.9310    8.6321    5.9795 H   0  0  0  0  0  0  0  0  0  0  0  0
   -2.2198    7.6461    6.3639 H   0  0  0  0  0  0  0  0  0  0  0  0
    0.3591    6.6633    3.5205 H   0  0  0  0  0  0  0  0  0  0  0  0
    0.7529    7.7824    4.7753 H   0  0  0  0  0  0  0  0  0  0  0  0
    1.9208   -2.3982   -2.2743 H   0  0  0  0  0  0  0  0  0  0  0  0
    0.2616   -1.9215   -2.5277 H   0  0  0  0  0  0  0  0  0  0  0  0
    2.7294   -0.7307   -3.9395 H   0  0  0  0  0  0  0  0  0  0  0  0
    1.0927   -0.1995   -4.2423 H   0  0  0  0  0  0  0  0  0  0  0  0
    0.4214   -2.4447   -5.0167 H   0  0  0  0  0  0  0  0  0  0  0  0
    2.0711   -3.0547   -4.7386 H   0  0  0  0  0  0  0  0  0  0  0  0
    1.5358   -4.1653   -8.1955 H   0  0  0  0  0  0  0  0  0  0  0  0
    1.0233   -4.1351   -6.5958 H   0  0  0  0  0  0  0  0  0  0  0  0
    2.2702   -0.9545   -8.4955 H   0  0  0  0  0  0  0  0  0  0  0  0
    1.2000   -2.0014   -9.2162 H   0  0  0  0  0  0  0  0  0  0  0  0
    1.1817    3.7894   -0.0704 H   0  0  0  0  0  0  0  0  0  0  0  0
    1.2719    3.3323   -1.7607 H   0  0  0  0  0  0  0  0  0  0  0  0
   -0.2584    3.2924   -0.9414 H   0  0  0  0  0  0  0  0  0  0  0  0
  1  2  1  0  0  0  0
  1 58  1  0  0  0  0
  1 59  1  0  0  0  0
  1 60  1  0  0  0  0
  2  3  1  0  0  0  0
  2 15  1  0  0  0  0
  2 61  1  6  0  0  0
  3  4  1  0  0  0  0
  3 62  1  0  0  0  0
  3 63  1  0  0  0  0
  4  5  1  0  0  0  0
  4 64  1  0  0  0  0
  4 65  1  0  0  0  0
  5  6  1  0  0  0  0
  5 66  1  0  0  0  0
  5 67  1  0  0  0  0
  6  7  1  0  0  0  0
  6  8  1  0  0  0  0
  7 68  1  0  0  0  0
  7 69  1  0  0  0  0
  7 70  1  0  0  0  0
  8  9  1  0  0  0  0
  8 71  1  0  0  0  0
  8 72  1  0  0  0  0
  9 10  2  0  0  0  0
  9 14  1  0  0  0  0
 10 11  1  0  0  0  0
 10 73  1  0  0  0  0
 11 12  2  0  0  0  0
 11 74  1  0  0  0  0
 12 13  1  0  0  0  0
 12 75  1  0  0  0  0
 13 14  2  0  0  0  0
 13 76  1  0  0  0  0
 14 77  1  0  0  0  0
 15 16  1  0  0  0  0
 15 19  1  0  0  0  0
 15 78  1  1  0  0  0
 16 17  1  0  0  0  0
 16 79  1  0  0  0  0
 16 80  1  0  0  0  0
 17 18  1  0  0  0  0
 17 81  1  0  0  0  0
 17 82  1  0  0  0  0
 18 19  1  0  0  0  0
 18 23  1  0  0  0  0
 18 83  1  1  0  0  0
 19 20  1  0  0  0  0
 19 57  1  6  0  0  0
 20 21  1  0  0  0  0
 20 49  1  0  0  0  0
 20 84  1  6  0  0  0
 21 22  1  0  0  0  0
 21 85  1  0  0  0  0
 21 86  1  0  0  0  0
 22 23  1  0  0  0  0
 22 27  1  0  0  0  0
 22 87  1  1  0  0  0
 23 24  1  0  0  0  0
 23 88  1  0  0  0  0
 24 25  1  0  0  0  0
 24 41  1  0  0  0  0
 24 89  1  6  0  0  0
 25 26  1  0  0  0  0
 25 90  1  0  0  0  0
 25 91  1  0  0  0  0
 26 27  1  0  0  0  0
 26 31  1  0  0  0  0
 26 92  1  0  0  0  0
 27 28  1  0  0  0  0
 27 40  1  6  0  0  0
 28 29  1  0  0  0  0
 28 93  1  0  0  0  0
 28 94  1  0  0  0  0
 29 30  1  0  0  0  0
 29 95  1  0  0  0  0
 29 96  1  0  0  0  0
 30 31  1  0  0  0  0
 30 32  1  0  0  0  0
 30 97  1  6  0  0  0
 31 98  1  0  0  0  0
 31 99  1  0  0  0  0
 32 33  1  0  0  0  0
 33 34  1  0  0  0  0
 33100  1  0  0  0  0
 33101  1  0  0  0  0
 34 35  1  0  0  0  0
 34102  1  0  0  0  0
 34103  1  0  0  0  0
 35 36  1  0  0  0  0
 35104  1  0  0  0  0
 35105  1  0  0  0  0
 36 37  2  0  0  0  0
 37 38  1  0  0  0  0
 37 39  1  0  0  0  0
 38106  1  0  0  0  0
 38107  1  0  0  0  0
 39108  1  0  0  0  0
 39109  1  0  0  0  0
 40110  1  0  0  0  0
 40111  1  0  0  0  0
 40112  1  0  0  0  0
 41 42  1  0  0  0  0
 42 43  1  0  0  0  0
 42113  1  0  0  0  0
 42114  1  0  0  0  0
 43 44  1  0  0  0  0
 43115  1  0  0  0  0
 43116  1  0  0  0  0
 44 45  1  0  0  0  0
 44117  1  0  0  0  0
 44118  1  0  0  0  0
 45 46  2  0  0  0  0
 46 47  1  0  0  0  0
 46 48  1  0  0  0  0
 47119  1  0  0  0  0
 47120  1  0  0  0  0
 48121  1  0  0  0  0
 48122  1  0  0  0  0
 49 50  1  0  0  0  0
 50 51  1  0  0  0  0
 50123  1  0  0  0  0
 50124  1  0  0  0  0
 51 52  1  0  0  0  0
 51125  1  0  0  0  0
 51126  1  0  0  0  0
 52 53  1  0  0  0  0
 52127  1  0  0  0  0
 52128  1  0  0  0  0
 53 54  2  0  0  0  0
 54 55  1  0  0  0  0
 54 56  1  0  0  0  0
 55129  1  0  0  0  0
 55130  1  0  0  0  0
 56131  1  0  0  0  0
 56132  1  0  0  0  0
 57133  1  0  0  0  0
 57134  1  0  0  0  0
 57135  1  0  0  0  0
M  END
