
 OpenBabel10072616273D

 28 27  0  0  0  0  0  0  0  0999 V2000
    3.2339   -0.4734    2.4873 C   0  0  0  0  0  0  0  0  0  0  0  0
    3.0941   -0.4874    0.9772 C   0  0  0  0  0  0  0  0  0  0  0  0
    3.4938   -1.7700    0.4715 O   0  0  0  0  0  0  0  0  0  0  0  0
    4.7825   -1.8699    0.0578 C   0  0  0  0  0  0  0  0  0  0  0  0
    5.6036   -0.9616    0.0755 O   0  0  0  0  0  0  0  0  0  0  0  0
    5.1056   -3.2285   -0.4329 C   0  0  0  0  0  0  0  0  0  0  0  0
    4.1586   -4.1204   -0.7900 C   0  0  0  0  0  0  0  0  0  0  0  0
    4.2300   -5.4197   -1.2979 N   0  0  0  0  0  0  0  0  0  0  0  0
    5.3135   -6.3430   -0.9329 C   0  0  0  0  0  0  0  0  0  0  0  0
    3.0301   -6.0929   -1.8046 C   0  0  0  0  0  0  0  0  0  0  0  0
    6.5340   -3.5241   -0.6873 C   0  0  0  0  0  0  0  0  0  0  0  0
    7.2140   -4.1466    0.1267 O   0  0  0  0  0  0  0  0  0  0  0  0
    7.1203   -2.9679   -1.9581 C   0  0  0  0  0  0  0  0  0  0  0  0
    3.0070    0.5183    2.8885 H   0  0  0  0  0  0  0  0  0  0  0  0
    4.2432   -0.7624    2.7988 H   0  0  0  0  0  0  0  0  0  0  0  0
    2.5441   -1.1980    2.9333 H   0  0  0  0  0  0  0  0  0  0  0  0
    3.6560    0.3320    0.5127 H   0  0  0  0  0  0  0  0  0  0  0  0
    2.0438   -0.3532    0.7002 H   0  0  0  0  0  0  0  0  0  0  0  0
    3.1156   -3.8149   -0.7072 H   0  0  0  0  0  0  0  0  0  0  0  0
    5.5123   -6.2945    0.1426 H   0  0  0  0  0  0  0  0  0  0  0  0
    6.2250   -6.1103   -1.4907 H   0  0  0  0  0  0  0  0  0  0  0  0
    5.0545   -7.3827   -1.1642 H   0  0  0  0  0  0  0  0  0  0  0  0
    2.3379   -5.3808   -2.2659 H   0  0  0  0  0  0  0  0  0  0  0  0
    2.5094   -6.6131   -0.9945 H   0  0  0  0  0  0  0  0  0  0  0  0
    3.3016   -6.8225   -2.5755 H   0  0  0  0  0  0  0  0  0  0  0  0
    6.3346   -2.7495   -2.6884 H   0  0  0  0  0  0  0  0  0  0  0  0
    7.7912   -3.7099   -2.3989 H   0  0  0  0  0  0  0  0  0  0  0  0
    7.6728   -2.0532   -1.7306 H   0  0  0  0  0  0  0  0  0  0  0  0
  1  2  1  0  0  0  0
  1 14  1  0  0  0  0
  1 15  1  0  0  0  0
  1 16  1  0  0  0  0
  2  3  1  0  0  0  0
  2 17  1  0  0  0  0
  2 18  1  0  0  0  0
  3  4  1  0  0  0  0
  4  5  2  0  0  0  0
  4  6  1  0  0  0  0
  6  7  2  0  0  0  0
  6 11  1  0  0  0  0
  7  8  1  0  0  0  0
  7 19  1  0  0  0  0
  8  9  1  0  0  0  0
  8 10  1  0  0  0  0
  9 20  1  0  0  0  0
  9 21  1  0  0  0  0
  9 22  1  0  0  0  0
 10 23  1  0  0  0  0
 10 24  1  0  0  0  0
 10 25  1  0  0  0  0
 11 12  2  0  0  0  0
 11 13  1  0  0  0  0
 13 26  1  0  0  0  0
 13 27  1  0  0  0  0
 13 28  1  0  0  0  0
M  END
