
 OpenBabel10072620033D

109116  0  0  0  0  0  0  0  0999 V2000
    5.0529    0.7679   -5.6380 C   0  0  0  0  0  0  0  0  0  0  0  0
    4.0813    0.0767   -4.6997 C   0  0  0  0  0  0  0  0  0  0  0  0
    4.2518    0.3774   -3.2239 C   0  0  0  0  0  0  0  0  0  0  0  0
    4.4969   -0.5901   -2.3033 C   0  0  0  0  0  0  0  0  0  0  0  0
    3.9578   -0.4169   -0.9126 C   0  0  0  0  0  0  0  0  0  0  0  0
    2.6461    0.0699   -0.7382 C   0  0  0  0  0  0  0  0  0  0  0  0
    2.0987    0.2617    0.5353 C   0  0  0  0  0  0  0  0  0  0  0  0
    2.8510   -0.0595    1.6566 C   0  0  0  0  0  0  0  0  0  0  0  0
    4.1159   -0.6339    1.4996 C   0  0  0  0  0  0  0  0  0  0  0  0
    4.6759   -0.7949    0.2239 C   0  0  0  0  0  0  0  0  0  0  0  0
    2.4052    0.0700    2.9438 O   0  0  0  0  0  0  0  0  0  0  0  0
    1.7045    1.2820    3.2210 C   0  0  0  0  0  0  0  0  0  0  0  0
    5.4108   -1.7013   -2.6920 C   0  0  0  0  0  0  0  0  0  0  0  0
    6.6945   -1.3956   -3.1987 C   0  0  0  0  0  0  0  0  0  0  0  0
    7.6349   -2.3987   -3.4241 C   0  0  0  0  0  0  0  0  0  0  0  0
    7.3173   -3.7047   -3.0819 C   0  0  0  0  0  0  0  0  0  0  0  0
    6.0417   -4.0345   -2.6171 C   0  0  0  0  0  0  0  0  0  0  0  0
    5.0849   -3.0326   -2.4301 C   0  0  0  0  0  0  0  0  0  0  0  0
    8.2815   -4.6643   -3.2126 O   0  0  0  0  0  0  0  0  0  0  0  0
    8.7490   -5.0775   -1.9260 C   0  0  0  0  0  0  0  0  0  0  0  0
    4.1886    1.7798   -2.8866 C   0  0  0  0  0  0  0  0  0  0  0  0
    3.3641    2.7289   -3.4296 C   0  0  0  0  0  0  0  0  0  0  0  0
    3.6927    3.9470   -2.8745 N   0  0  0  0  0  0  0  0  0  0  0  0
    4.6847    3.7886   -1.9221 C   0  0  0  0  0  0  0  0  0  0  0  0
    5.3037    4.7024   -1.0542 C   0  0  0  0  0  0  0  0  0  0  0  0
    6.3895    4.2510   -0.2901 C   0  0  0  0  0  0  0  0  0  0  0  0
    6.8735    2.9543   -0.4208 C   0  0  0  0  0  0  0  0  0  0  0  0
    6.2271    2.0507   -1.2590 C   0  0  0  0  0  0  0  0  0  0  0  0
    5.0872    2.4533   -1.9937 C   0  0  0  0  0  0  0  0  0  0  0  0
    3.2333    5.2172   -3.4071 C   0  0  0  0  0  0  0  0  0  0  0  0
    2.2662    5.9543   -2.6017 N   0  0  0  0  0  0  0  0  0  0  0  0
    2.1879    7.3334   -2.6506 C   0  0  0  0  0  0  0  0  0  0  0  0
    1.0116    7.7255   -2.0572 C   0  0  0  0  0  0  0  0  0  0  0  0
    0.3726    6.5495   -1.5743 C   0  0  0  0  0  0  0  0  0  0  0  0
   -0.8348    6.3198   -0.8864 C   0  0  0  0  0  0  0  0  0  0  0  0
   -1.1940    5.0246   -0.5124 C   0  0  0  0  0  0  0  0  0  0  0  0
   -0.3616    3.9541   -0.7992 C   0  0  0  0  0  0  0  0  0  0  0  0
    0.8348    4.1486   -1.4924 C   0  0  0  0  0  0  0  0  0  0  0  0
    1.1929    5.4534   -1.8866 C   0  0  0  0  0  0  0  0  0  0  0  0
    0.5747    9.0920   -1.9248 C   0  0  0  0  0  0  0  0  0  0  0  0
   -0.3916    9.6839   -2.6829 C   0  0  0  0  0  0  0  0  0  0  0  0
   -0.5802   11.1532   -2.5460 C   0  0  0  0  0  0  0  0  0  0  0  0
    0.3064   12.0085   -3.2153 C   0  0  0  0  0  0  0  0  0  0  0  0
    0.2049   13.3909   -3.0651 C   0  0  0  0  0  0  0  0  0  0  0  0
   -0.7920   13.9331   -2.2556 C   0  0  0  0  0  0  0  0  0  0  0  0
   -1.6616   13.0824   -1.5714 C   0  0  0  0  0  0  0  0  0  0  0  0
   -1.5663   11.6970   -1.7183 C   0  0  0  0  0  0  0  0  0  0  0  0
   -1.0065   15.2671   -2.0412 O   0  0  0  0  0  0  0  0  0  0  0  0
   -0.3553   16.1532   -2.9431 C   0  0  0  0  0  0  0  0  0  0  0  0
   -1.1159    8.9439   -3.7488 C   0  0  0  0  0  0  0  0  0  0  0  0
   -2.4016    8.4366   -3.5243 C   0  0  0  0  0  0  0  0  0  0  0  0
   -3.1110    7.7940   -4.5527 C   0  0  0  0  0  0  0  0  0  0  0  0
   -2.5425    7.6686   -5.8211 C   0  0  0  0  0  0  0  0  0  0  0  0
   -1.2574    8.1664   -6.0439 C   0  0  0  0  0  0  0  0  0  0  0  0
   -0.5503    8.8077   -5.0219 C   0  0  0  0  0  0  0  0  0  0  0  0
   -3.1246    7.1128   -6.9265 O   0  0  0  0  0  0  0  0  0  0  0  0
   -4.3753    6.4637   -6.7547 C   0  0  0  0  0  0  0  0  0  0  0  0
    1.3436    9.8680   -0.8533 C   0  0  0  0  0  0  0  0  0  0  0  0
    1.8775    9.1147    0.3588 C   0  0  0  0  0  0  0  0  0  0  0  0
    4.9571    0.3353   -6.6378 H   0  0  0  0  0  0  0  0  0  0  0  0
    6.0870    0.6491   -5.3078 H   0  0  0  0  0  0  0  0  0  0  0  0
    4.8361    1.8378   -5.7223 H   0  0  0  0  0  0  0  0  0  0  0  0
    4.1445   -1.0057   -4.8681 H   0  0  0  0  0  0  0  0  0  0  0  0
    3.0549    0.3439   -4.9893 H   0  0  0  0  0  0  0  0  0  0  0  0
    2.0321    0.3059   -1.6045 H   0  0  0  0  0  0  0  0  0  0  0  0
    1.0791    0.6238    0.6165 H   0  0  0  0  0  0  0  0  0  0  0  0
    4.6682   -0.9608    2.3759 H   0  0  0  0  0  0  0  0  0  0  0  0
    5.6752   -1.2140    0.1338 H   0  0  0  0  0  0  0  0  0  0  0  0
    1.6748    1.3945    4.3104 H   0  0  0  0  0  0  0  0  0  0  0  0
    0.6705    1.2298    2.8665 H   0  0  0  0  0  0  0  0  0  0  0  0
    2.2157    2.1601    2.8093 H   0  0  0  0  0  0  0  0  0  0  0  0
    6.9876   -0.3640   -3.3878 H   0  0  0  0  0  0  0  0  0  0  0  0
    8.6184   -2.1475   -3.8133 H   0  0  0  0  0  0  0  0  0  0  0  0
    5.8049   -5.0652   -2.3833 H   0  0  0  0  0  0  0  0  0  0  0  0
    4.1005   -3.2900   -2.0465 H   0  0  0  0  0  0  0  0  0  0  0  0
    9.8263   -5.2565   -2.0096 H   0  0  0  0  0  0  0  0  0  0  0  0
    8.2574   -6.0136   -1.6441 H   0  0  0  0  0  0  0  0  0  0  0  0
    8.5909   -4.3245   -1.1425 H   0  0  0  0  0  0  0  0  0  0  0  0
    2.5791    2.6560   -4.1755 H   0  0  0  0  0  0  0  0  0  0  0  0
    4.9552    5.7264   -0.9604 H   0  0  0  0  0  0  0  0  0  0  0  0
    6.8645    4.9247    0.4192 H   0  0  0  0  0  0  0  0  0  0  0  0
    7.7452    2.6323    0.1457 H   0  0  0  0  0  0  0  0  0  0  0  0
    6.5952    1.0311   -1.3386 H   0  0  0  0  0  0  0  0  0  0  0  0
    2.7650    5.0366   -4.3861 H   0  0  0  0  0  0  0  0  0  0  0  0
    4.1192    5.8476   -3.5544 H   0  0  0  0  0  0  0  0  0  0  0  0
    2.9534    7.9157   -3.1477 H   0  0  0  0  0  0  0  0  0  0  0  0
   -1.4888    7.1517   -0.6499 H   0  0  0  0  0  0  0  0  0  0  0  0
   -2.1316    4.8579    0.0082 H   0  0  0  0  0  0  0  0  0  0  0  0
   -0.6454    2.9495   -0.4941 H   0  0  0  0  0  0  0  0  0  0  0  0
    1.4622    3.2871   -1.6861 H   0  0  0  0  0  0  0  0  0  0  0  0
    1.0960   11.5961   -3.8396 H   0  0  0  0  0  0  0  0  0  0  0  0
    0.9284   14.0132   -3.5777 H   0  0  0  0  0  0  0  0  0  0  0  0
   -2.4174   13.5053   -0.9162 H   0  0  0  0  0  0  0  0  0  0  0  0
   -2.2428   11.0528   -1.1653 H   0  0  0  0  0  0  0  0  0  0  0  0
   -0.7650   17.1577   -2.7931 H   0  0  0  0  0  0  0  0  0  0  0  0
   -0.5451   15.8700   -3.9842 H   0  0  0  0  0  0  0  0  0  0  0  0
    0.7174   16.1865   -2.7295 H   0  0  0  0  0  0  0  0  0  0  0  0
   -2.8727    8.5601   -2.5522 H   0  0  0  0  0  0  0  0  0  0  0  0
   -4.1028    7.4176   -4.3265 H   0  0  0  0  0  0  0  0  0  0  0  0
   -0.8073    8.0595   -7.0283 H   0  0  0  0  0  0  0  0  0  0  0  0
    0.4307    9.2211   -5.2379 H   0  0  0  0  0  0  0  0  0  0  0  0
   -4.7562    6.2196   -7.7514 H   0  0  0  0  0  0  0  0  0  0  0  0
   -5.1204    7.1046   -6.2724 H   0  0  0  0  0  0  0  0  0  0  0  0
   -4.2374    5.5289   -6.2034 H   0  0  0  0  0  0  0  0  0  0  0  0
    0.6820   10.6259   -0.4260 H   0  0  0  0  0  0  0  0  0  0  0  0
    2.1709   10.4119   -1.3255 H   0  0  0  0  0  0  0  0  0  0  0  0
    1.1239    8.4397    0.7731 H   0  0  0  0  0  0  0  0  0  0  0  0
    2.1513    9.8339    1.1407 H   0  0  0  0  0  0  0  0  0  0  0  0
    2.7743    8.5434    0.1027 H   0  0  0  0  0  0  0  0  0  0  0  0
  1  2  1  0  0  0  0
  1 60  1  0  0  0  0
  1 61  1  0  0  0  0
  1 62  1  0  0  0  0
  2  3  1  0  0  0  0
  2 63  1  0  0  0  0
  2 64  1  0  0  0  0
  3  4  2  0  0  0  0
  3 21  1  0  0  0  0
  4  5  1  0  0  0  0
  4 13  1  0  0  0  0
  5  6  2  0  0  0  0
  5 10  1  0  0  0  0
  6  7  1  0  0  0  0
  6 65  1  0  0  0  0
  7  8  2  0  0  0  0
  7 66  1  0  0  0  0
  8  9  1  0  0  0  0
  8 11  1  0  0  0  0
  9 10  2  0  0  0  0
  9 67  1  0  0  0  0
 10 68  1  0  0  0  0
 11 12  1  0  0  0  0
 12 69  1  0  0  0  0
 12 70  1  0  0  0  0
 12 71  1  0  0  0  0
 13 14  2  0  0  0  0
 13 18  1  0  0  0  0
 14 15  1  0  0  0  0
 14 72  1  0  0  0  0
 15 16  2  0  0  0  0
 15 73  1  0  0  0  0
 16 17  1  0  0  0  0
 16 19  1  0  0  0  0
 17 18  2  0  0  0  0
 17 74  1  0  0  0  0
 18 75  1  0  0  0  0
 19 20  1  0  0  0  0
 20 76  1  0  0  0  0
 20 77  1  0  0  0  0
 20 78  1  0  0  0  0
 21 22  2  0  0  0  0
 21 29  1  0  0  0  0
 22 23  1  0  0  0  0
 22 79  1  0  0  0  0
 23 24  1  0  0  0  0
 23 30  1  0  0  0  0
 24 25  2  0  0  0  0
 24 29  1  0  0  0  0
 25 26  1  0  0  0  0
 25 80  1  0  0  0  0
 26 27  2  0  0  0  0
 26 81  1  0  0  0  0
 27 28  1  0  0  0  0
 27 82  1  0  0  0  0
 28 29  2  0  0  0  0
 28 83  1  0  0  0  0
 30 31  1  0  0  0  0
 30 84  1  0  0  0  0
 30 85  1  0  0  0  0
 31 32  1  0  0  0  0
 31 39  1  0  0  0  0
 32 33  2  0  0  0  0
 32 86  1  0  0  0  0
 33 34  1  0  0  0  0
 33 40  1  0  0  0  0
 34 35  2  0  0  0  0
 34 39  1  0  0  0  0
 35 36  1  0  0  0  0
 35 87  1  0  0  0  0
 36 37  2  0  0  0  0
 36 88  1  0  0  0  0
 37 38  1  0  0  0  0
 37 89  1  0  0  0  0
 38 39  2  0  0  0  0
 38 90  1  0  0  0  0
 40 41  2  0  0  0  0
 40 58  1  0  0  0  0
 41 42  1  0  0  0  0
 41 50  1  0  0  0  0
 42 43  2  0  0  0  0
 42 47  1  0  0  0  0
 43 44  1  0  0  0  0
 43 91  1  0  0  0  0
 44 45  2  0  0  0  0
 44 92  1  0  0  0  0
 45 46  1  0  0  0  0
 45 48  1  0  0  0  0
 46 47  2  0  0  0  0
 46 93  1  0  0  0  0
 47 94  1  0  0  0  0
 48 49  1  0  0  0  0
 49 95  1  0  0  0  0
 49 96  1  0  0  0  0
 49 97  1  0  0  0  0
 50 51  2  0  0  0  0
 50 55  1  0  0  0  0
 51 52  1  0  0  0  0
 51 98  1  0  0  0  0
 52 53  2  0  0  0  0
 52 99  1  0  0  0  0
 53 54  1  0  0  0  0
 53 56  1  0  0  0  0
 54 55  2  0  0  0  0
 54100  1  0  0  0  0
 55101  1  0  0  0  0
 56 57  1  0  0  0  0
 57102  1  0  0  0  0
 57103  1  0  0  0  0
 57104  1  0  0  0  0
 58 59  1  0  0  0  0
 58105  1  0  0  0  0
 58106  1  0  0  0  0
 59107  1  0  0  0  0
 59108  1  0  0  0  0
 59109  1  0  0  0  0
M  END
