
 OpenBabel10072619433D

 42 43  0  0  0  0  0  0  0  0999 V2000
    1.1751   -0.2846   -0.1944 C   0  0  0  0  0  0  0  0  0  0  0  0
    2.5732    0.1041   -0.3716 N   0  0  0  0  0  0  0  0  0  0  0  0
    3.4871   -1.0152   -0.6216 C   0  0  0  0  0  0  0  0  0  0  0  0
    3.0976    1.1041    0.4623 C   0  0  0  0  0  0  0  0  0  0  0  0
    2.4461    1.5810    1.6080 C   0  0  0  0  0  0  0  0  0  0  0  0
    2.9991    2.5922    2.4142 C   0  0  0  0  0  0  0  0  0  0  0  0
    4.2170    3.1782    2.0821 C   0  0  0  0  0  0  0  0  0  0  0  0
    4.8737    2.7305    0.9345 C   0  0  0  0  0  0  0  0  0  0  0  0
    4.3216    1.7114    0.1456 C   0  0  0  0  0  0  0  0  0  0  0  0
    4.8404    4.1982    2.8291 N   0  0  0  0  0  0  0  0  0  0  0  0
    4.3708    4.8236    3.9649 C   0  0  0  0  0  0  0  0  0  0  0  0
    3.2937    4.6405    4.5144 O   0  0  0  0  0  0  0  0  0  0  0  0
    5.2942    5.7436    4.4312 N   0  0  0  0  0  0  0  0  0  0  0  0
    5.0596    6.4778    5.6699 C   0  0  0  0  0  0  0  0  0  0  0  0
    5.8515    7.7913    5.6617 C   0  0  0  0  0  0  0  0  0  0  0  0
    5.6914    8.5547    6.9744 C   0  0  0  0  0  0  0  0  0  0  0  0
    6.0718    7.6913    8.1735 C   0  0  0  0  0  0  0  0  0  0  0  0
    5.2822    6.3859    8.1948 C   0  0  0  0  0  0  0  0  0  0  0  0
    5.4323    5.6165    6.8854 C   0  0  0  0  0  0  0  0  0  0  0  0
    0.8558   -0.9221   -1.0270 H   0  0  0  0  0  0  0  0  0  0  0  0
    0.5127    0.5884   -0.2010 H   0  0  0  0  0  0  0  0  0  0  0  0
    1.0300   -0.8483    0.7335 H   0  0  0  0  0  0  0  0  0  0  0  0
    3.0181   -1.7487   -1.2875 H   0  0  0  0  0  0  0  0  0  0  0  0
    3.7451   -1.5254    0.3138 H   0  0  0  0  0  0  0  0  0  0  0  0
    4.4087   -0.6973   -1.1196 H   0  0  0  0  0  0  0  0  0  0  0  0
    1.4922    1.1677    1.9209 H   0  0  0  0  0  0  0  0  0  0  0  0
    2.4425    2.8982    3.2953 H   0  0  0  0  0  0  0  0  0  0  0  0
    5.8189    3.1671    0.6246 H   0  0  0  0  0  0  0  0  0  0  0  0
    4.8542    1.4139   -0.7534 H   0  0  0  0  0  0  0  0  0  0  0  0
    5.6910    4.5779    2.4442 H   0  0  0  0  0  0  0  0  0  0  0  0
    6.2575    5.5418    4.2140 H   0  0  0  0  0  0  0  0  0  0  0  0
    3.9898    6.7183    5.7248 H   0  0  0  0  0  0  0  0  0  0  0  0
    5.5193    8.4231    4.8284 H   0  0  0  0  0  0  0  0  0  0  0  0
    6.9165    7.5872    5.4889 H   0  0  0  0  0  0  0  0  0  0  0  0
    4.6517    8.8898    7.0785 H   0  0  0  0  0  0  0  0  0  0  0  0
    6.3166    9.4545    6.9562 H   0  0  0  0  0  0  0  0  0  0  0  0
    5.8922    8.2476    9.1006 H   0  0  0  0  0  0  0  0  0  0  0  0
    7.1457    7.4677    8.1365 H   0  0  0  0  0  0  0  0  0  0  0  0
    4.2210    6.6009    8.3709 H   0  0  0  0  0  0  0  0  0  0  0  0
    5.6244    5.7626    9.0287 H   0  0  0  0  0  0  0  0  0  0  0  0
    4.8081    4.7157    6.9196 H   0  0  0  0  0  0  0  0  0  0  0  0
    6.4691    5.2680    6.7882 H   0  0  0  0  0  0  0  0  0  0  0  0
  1  2  1  0  0  0  0
  1 20  1  0  0  0  0
  1 21  1  0  0  0  0
  1 22  1  0  0  0  0
  2  3  1  0  0  0  0
  2  4  1  0  0  0  0
  3 23  1  0  0  0  0
  3 24  1  0  0  0  0
  3 25  1  0  0  0  0
  4  5  2  0  0  0  0
  4  9  1  0  0  0  0
  5  6  1  0  0  0  0
  5 26  1  0  0  0  0
  6  7  2  0  0  0  0
  6 27  1  0  0  0  0
  7  8  1  0  0  0  0
  7 10  1  0  0  0  0
  8  9  2  0  0  0  0
  8 28  1  0  0  0  0
  9 29  1  0  0  0  0
 10 11  1  0  0  0  0
 10 30  1  0  0  0  0
 11 12  2  0  0  0  0
 11 13  1  0  0  0  0
 13 14  1  0  0  0  0
 13 31  1  0  0  0  0
 14 15  1  0  0  0  0
 14 19  1  0  0  0  0
 14 32  1  0  0  0  0
 15 16  1  0  0  0  0
 15 33  1  0  0  0  0
 15 34  1  0  0  0  0
 16 17  1  0  0  0  0
 16 35  1  0  0  0  0
 16 36  1  0  0  0  0
 17 18  1  0  0  0  0
 17 37  1  0  0  0  0
 17 38  1  0  0  0  0
 18 19  1  0  0  0  0
 18 39  1  0  0  0  0
 18 40  1  0  0  0  0
 19 41  1  0  0  0  0
 19 42  1  0  0  0  0
M  END
