
 OpenBabel10072620113D

 72 73  0  0  0  0  0  0  0  0999 V2000
    6.5494    3.4583    1.9539 C   0  0  0  0  0  0  0  0  0  0  0  0
    5.6831    2.8613    0.9963 O   0  0  0  0  0  0  0  0  0  0  0  0
    4.7871    1.9313    1.4744 C   0  0  0  0  0  0  0  0  0  0  0  0
    4.4818    1.7373    2.8291 C   0  0  0  0  0  0  0  0  0  0  0  0
    3.5602    0.7600    3.2143 C   0  0  0  0  0  0  0  0  0  0  0  0
    2.9526   -0.0368    2.2520 C   0  0  0  0  0  0  0  0  0  0  0  0
    3.2184    0.1733    0.8981 C   0  0  0  0  0  0  0  0  0  0  0  0
    4.1120    1.1731    0.4992 C   0  0  0  0  0  0  0  0  0  0  0  0
    4.3697    1.4668   -0.8630 N   0  0  0  0  0  0  0  0  0  0  0  0
    3.5576    1.1504   -1.9207 C   0  0  0  0  0  0  0  0  0  0  0  0
    2.4424    0.6368   -1.8543 O   0  0  0  0  0  0  0  0  0  0  0  0
    4.1434    1.4849   -3.1299 N   0  0  0  0  0  0  0  0  0  0  0  0
    3.4084    1.1171   -4.3228 C   0  0  0  0  0  0  0  0  0  0  0  0
    4.0335    1.6065   -5.6230 C   0  0  0  0  0  0  0  0  0  0  0  0
    3.1087    1.2648   -6.7992 C   0  0  0  0  0  0  0  0  0  0  0  0
    3.6940    1.7128   -8.1376 C   0  0  0  0  0  0  0  0  0  0  0  0
    2.7610    1.3770   -9.3060 C   0  0  0  0  0  0  0  0  0  0  0  0
    3.3764    1.8002  -10.6423 C   0  0  0  0  0  0  0  0  0  0  0  0
    2.4736    1.4230  -11.8215 C   0  0  0  0  0  0  0  0  0  0  0  0
    3.0188    1.8792  -13.1806 C   0  0  0  0  0  0  0  0  0  0  0  0
    4.3446    1.2153  -13.5544 C   0  0  0  0  0  0  0  0  0  0  0  0
    4.8650    1.6957  -14.9021 C   0  0  0  0  0  0  0  0  0  0  0  0
    6.1275    1.0643  -15.2109 N   0  0  0  0  0  0  0  0  0  0  0  0
    6.6773    1.2146  -16.4616 C   0  0  0  0  0  0  0  0  0  0  0  0
    6.0703    1.7174  -17.3993 O   0  0  0  0  0  0  0  0  0  0  0  0
    7.9616    0.7391  -16.5069 N   0  0  0  0  0  0  0  0  0  0  0  0
    8.7499    0.7570  -17.6784 C   0  0  0  0  0  0  0  0  0  0  0  0
    8.2282    0.5391  -18.9583 C   0  0  0  0  0  0  0  0  0  0  0  0
    9.0500    0.6587  -20.0803 C   0  0  0  0  0  0  0  0  0  0  0  0
   10.3864    1.0188  -19.9160 C   0  0  0  0  0  0  0  0  0  0  0  0
   10.9148    1.2159  -18.6387 C   0  0  0  0  0  0  0  0  0  0  0  0
   10.1118    1.0540  -17.5106 C   0  0  0  0  0  0  0  0  0  0  0  0
   10.5137    1.2392  -16.2118 O   0  0  0  0  0  0  0  0  0  0  0  0
   11.9129    1.2234  -15.9739 C   0  0  0  0  0  0  0  0  0  0  0  0
    7.2781    4.0661    1.4092 H   0  0  0  0  0  0  0  0  0  0  0  0
    7.1018    2.6977    2.5160 H   0  0  0  0  0  0  0  0  0  0  0  0
    5.9971    4.1227    2.6266 H   0  0  0  0  0  0  0  0  0  0  0  0
    4.9229    2.3355    3.6175 H   0  0  0  0  0  0  0  0  0  0  0  0
    3.3101    0.6334    4.2654 H   0  0  0  0  0  0  0  0  0  0  0  0
    2.2359   -0.8015    2.5355 H   0  0  0  0  0  0  0  0  0  0  0  0
    2.6927   -0.4520    0.1836 H   0  0  0  0  0  0  0  0  0  0  0  0
    5.0325    2.2141   -1.0147 H   0  0  0  0  0  0  0  0  0  0  0  0
    5.1462    1.3545   -3.1319 H   0  0  0  0  0  0  0  0  0  0  0  0
    2.3978    1.5291   -4.2193 H   0  0  0  0  0  0  0  0  0  0  0  0
    3.3164    0.0240   -4.3388 H   0  0  0  0  0  0  0  0  0  0  0  0
    5.0140    1.1358   -5.7622 H   0  0  0  0  0  0  0  0  0  0  0  0
    4.2027    2.6889   -5.5820 H   0  0  0  0  0  0  0  0  0  0  0  0
    2.1345    1.7465   -6.6462 H   0  0  0  0  0  0  0  0  0  0  0  0
    2.9293    0.1823   -6.8195 H   0  0  0  0  0  0  0  0  0  0  0  0
    4.6656    1.2270   -8.2888 H   0  0  0  0  0  0  0  0  0  0  0  0
    3.8709    2.7944   -8.1157 H   0  0  0  0  0  0  0  0  0  0  0  0
    1.7983    1.8845   -9.1687 H   0  0  0  0  0  0  0  0  0  0  0  0
    2.5636    0.2979   -9.3219 H   0  0  0  0  0  0  0  0  0  0  0  0
    4.3530    1.3135  -10.7407 H   0  0  0  0  0  0  0  0  0  0  0  0
    3.5466    2.8841  -10.6433 H   0  0  0  0  0  0  0  0  0  0  0  0
    1.4868    1.8814  -11.6771 H   0  0  0  0  0  0  0  0  0  0  0  0
    2.3166    0.3375  -11.8357 H   0  0  0  0  0  0  0  0  0  0  0  0
    3.1333    2.9697  -13.1815 H   0  0  0  0  0  0  0  0  0  0  0  0
    2.2704    1.6422  -13.9480 H   0  0  0  0  0  0  0  0  0  0  0  0
    4.2180    0.1256  -13.5774 H   0  0  0  0  0  0  0  0  0  0  0  0
    5.1106    1.4299  -12.8004 H   0  0  0  0  0  0  0  0  0  0  0  0
    5.0421    2.7784  -14.8914 H   0  0  0  0  0  0  0  0  0  0  0  0
    4.1553    1.4718  -15.7065 H   0  0  0  0  0  0  0  0  0  0  0  0
    6.7700    0.8865  -14.4545 H   0  0  0  0  0  0  0  0  0  0  0  0
    8.5039    0.8820  -15.6605 H   0  0  0  0  0  0  0  0  0  0  0  0
    7.1750    0.2985  -19.1003 H   0  0  0  0  0  0  0  0  0  0  0  0
    8.6512    0.5044  -21.0813 H   0  0  0  0  0  0  0  0  0  0  0  0
   11.0269    1.1733  -20.7785 H   0  0  0  0  0  0  0  0  0  0  0  0
   11.9494    1.5293  -18.5753 H   0  0  0  0  0  0  0  0  0  0  0  0
   12.3319    2.2155  -16.1692 H   0  0  0  0  0  0  0  0  0  0  0  0
   12.4282    0.4496  -16.5529 H   0  0  0  0  0  0  0  0  0  0  0  0
   12.0545    0.9800  -14.9164 H   0  0  0  0  0  0  0  0  0  0  0  0
  1  2  1  0  0  0  0
  1 35  1  0  0  0  0
  1 36  1  0  0  0  0
  1 37  1  0  0  0  0
  2  3  1  0  0  0  0
  3  4  2  0  0  0  0
  3  8  1  0  0  0  0
  4  5  1  0  0  0  0
  4 38  1  0  0  0  0
  5  6  2  0  0  0  0
  5 39  1  0  0  0  0
  6  7  1  0  0  0  0
  6 40  1  0  0  0  0
  7  8  2  0  0  0  0
  7 41  1  0  0  0  0
  8  9  1  0  0  0  0
  9 10  1  0  0  0  0
  9 42  1  0  0  0  0
 10 11  2  0  0  0  0
 10 12  1  0  0  0  0
 12 13  1  0  0  0  0
 12 43  1  0  0  0  0
 13 14  1  0  0  0  0
 13 44  1  0  0  0  0
 13 45  1  0  0  0  0
 14 15  1  0  0  0  0
 14 46  1  0  0  0  0
 14 47  1  0  0  0  0
 15 16  1  0  0  0  0
 15 48  1  0  0  0  0
 15 49  1  0  0  0  0
 16 17  1  0  0  0  0
 16 50  1  0  0  0  0
 16 51  1  0  0  0  0
 17 18  1  0  0  0  0
 17 52  1  0  0  0  0
 17 53  1  0  0  0  0
 18 19  1  0  0  0  0
 18 54  1  0  0  0  0
 18 55  1  0  0  0  0
 19 20  1  0  0  0  0
 19 56  1  0  0  0  0
 19 57  1  0  0  0  0
 20 21  1  0  0  0  0
 20 58  1  0  0  0  0
 20 59  1  0  0  0  0
 21 22  1  0  0  0  0
 21 60  1  0  0  0  0
 21 61  1  0  0  0  0
 22 23  1  0  0  0  0
 22 62  1  0  0  0  0
 22 63  1  0  0  0  0
 23 24  1  0  0  0  0
 23 64  1  0  0  0  0
 24 25  2  0  0  0  0
 24 26  1  0  0  0  0
 26 27  1  0  0  0  0
 26 65  1  0  0  0  0
 27 28  2  0  0  0  0
 27 32  1  0  0  0  0
 28 29  1  0  0  0  0
 28 66  1  0  0  0  0
 29 30  2  0  0  0  0
 29 67  1  0  0  0  0
 30 31  1  0  0  0  0
 30 68  1  0  0  0  0
 31 32  2  0  0  0  0
 31 69  1  0  0  0  0
 32 33  1  0  0  0  0
 33 34  1  0  0  0  0
 34 70  1  0  0  0  0
 34 71  1  0  0  0  0
 34 72  1  0  0  0  0
M  END
