
 OpenBabel10072619433D

 51 53  0  0  1  0  0  0  0  0999 V2000
   -0.2984   -1.3505    0.2521 C   0  0  0  0  0  0  0  0  0  0  0  0
    0.8423   -0.4785    0.3726 O   0  0  0  0  0  0  0  0  0  0  0  0
    0.3768    0.8795    0.2391 C   0  0  0  0  0  0  0  0  0  0  0  0
   -1.1453    0.8367    0.3535 C   0  0  1  0  0  0  0  0  0  0  0  0
   -1.4535   -0.5089   -0.2773 C   0  0  1  0  0  0  0  0  0  0  0  0
   -1.3327   -0.4639   -1.7121 O   0  0  0  0  0  0  0  0  0  0  0  0
   -2.3938    0.0287   -2.3904 C   0  0  0  0  0  0  0  0  0  0  0  0
   -3.4306    0.4392   -1.8945 O   0  0  0  0  0  0  0  0  0  0  0  0
   -2.1394    0.0397   -3.8474 C   0  0  0  0  0  0  0  0  0  0  0  0
   -1.0047   -0.4252   -4.3928 C   0  0  0  0  0  0  0  0  0  0  0  0
   -0.7521   -0.3973   -5.8329 C   0  0  0  0  0  0  0  0  0  0  0  0
   -0.1189    0.7107   -6.4114 C   0  0  0  0  0  0  0  0  0  0  0  0
    0.1694    0.6929   -7.7715 C   0  0  0  0  0  0  0  0  0  0  0  0
   -0.1766   -0.4069   -8.5524 C   0  0  0  0  0  0  0  0  0  0  0  0
   -0.8210   -1.4998   -7.9941 C   0  0  0  0  0  0  0  0  0  0  0  0
   -1.1105   -1.4954   -6.6283 C   0  0  0  0  0  0  0  0  0  0  0  0
    0.1318   -0.4238   -9.8819 O   0  0  0  0  0  0  0  0  0  0  0  0
    0.8080    1.7324   -8.3892 O   0  0  0  0  0  0  0  0  0  0  0  0
   -1.5433    0.7776    1.7405 O   0  0  0  0  0  0  0  0  0  0  0  0
   -1.4642    1.9553    2.4041 C   0  0  0  0  0  0  0  0  0  0  0  0
   -1.1660    3.0344    1.9212 O   0  0  0  0  0  0  0  0  0  0  0  0
   -1.7516    1.7035    3.8295 C   0  0  0  0  0  0  0  0  0  0  0  0
   -1.7261    2.7271    4.6956 C   0  0  0  0  0  0  0  0  0  0  0  0
   -1.9711    2.6025    6.1393 C   0  0  0  0  0  0  0  0  0  0  0  0
   -2.6060    3.6640    6.8029 C   0  0  0  0  0  0  0  0  0  0  0  0
   -2.8066    3.5999    8.1788 C   0  0  0  0  0  0  0  0  0  0  0  0
   -2.3727    2.4948    8.9034 C   0  0  0  0  0  0  0  0  0  0  0  0
   -1.7347    1.4406    8.2697 C   0  0  0  0  0  0  0  0  0  0  0  0
   -1.5315    1.4962    6.8865 C   0  0  0  0  0  0  0  0  0  0  0  0
   -2.5672    2.4442   10.2535 O   0  0  0  0  0  0  0  0  0  0  0  0
   -3.4224    4.6091    8.8671 O   0  0  0  0  0  0  0  0  0  0  0  0
   -0.5101   -1.7426    1.2524 H   0  0  0  0  0  0  0  0  0  0  0  0
   -0.0362   -2.1789   -0.4112 H   0  0  0  0  0  0  0  0  0  0  0  0
    0.6909    1.2349   -0.7484 H   0  0  0  0  0  0  0  0  0  0  0  0
    0.8632    1.4870    1.0073 H   0  0  0  0  0  0  0  0  0  0  0  0
   -1.6259    1.6820   -0.1505 H   0  0  0  0  0  0  0  0  0  0  0  0
   -2.4146   -0.9446    0.0161 H   0  0  0  0  0  0  0  0  0  0  0  0
   -2.9390    0.4601   -4.4488 H   0  0  0  0  0  0  0  0  0  0  0  0
   -0.2067   -0.8553   -3.7915 H   0  0  0  0  0  0  0  0  0  0  0  0
    0.1541    1.5607   -5.7944 H   0  0  0  0  0  0  0  0  0  0  0  0
   -1.0849   -2.3512   -8.6129 H   0  0  0  0  0  0  0  0  0  0  0  0
   -1.6031   -2.3594   -6.1882 H   0  0  0  0  0  0  0  0  0  0  0  0
    0.5891    0.4260  -10.0406 H   0  0  0  0  0  0  0  0  0  0  0  0
    1.0052    2.4127   -7.7225 H   0  0  0  0  0  0  0  0  0  0  0  0
   -1.9657    0.6850    4.1252 H   0  0  0  0  0  0  0  0  0  0  0  0
   -1.5224    3.7352    4.3364 H   0  0  0  0  0  0  0  0  0  0  0  0
   -2.9420    4.5296    6.2402 H   0  0  0  0  0  0  0  0  0  0  0  0
   -1.3886    0.5880    8.8468 H   0  0  0  0  0  0  0  0  0  0  0  0
   -1.0097    0.6716    6.4076 H   0  0  0  0  0  0  0  0  0  0  0  0
   -3.0280    3.2800   10.4676 H   0  0  0  0  0  0  0  0  0  0  0  0
   -3.6566    5.3085    8.2329 H   0  0  0  0  0  0  0  0  0  0  0  0
  1  2  1  0  0  0  0
  1  5  1  0  0  0  0
  1 32  1  0  0  0  0
  1 33  1  0  0  0  0
  2  3  1  0  0  0  0
  3  4  1  0  0  0  0
  3 34  1  0  0  0  0
  3 35  1  0  0  0  0
  4  5  1  0  0  0  0
  4 19  1  0  0  0  0
  4 36  1  6  0  0  0
  5  6  1  0  0  0  0
  5 37  1  1  0  0  0
  6  7  1  0  0  0  0
  7  8  2  0  0  0  0
  7  9  1  0  0  0  0
  9 10  2  0  0  0  0
  9 38  1  0  0  0  0
 10 11  1  0  0  0  0
 10 39  1  0  0  0  0
 11 12  2  0  0  0  0
 11 16  1  0  0  0  0
 12 13  1  0  0  0  0
 12 40  1  0  0  0  0
 13 14  2  0  0  0  0
 13 18  1  0  0  0  0
 14 15  1  0  0  0  0
 14 17  1  0  0  0  0
 15 16  2  0  0  0  0
 15 41  1  0  0  0  0
 16 42  1  0  0  0  0
 17 43  1  0  0  0  0
 18 44  1  0  0  0  0
 19 20  1  0  0  0  0
 20 21  2  0  0  0  0
 20 22  1  0  0  0  0
 22 23  2  0  0  0  0
 22 45  1  0  0  0  0
 23 24  1  0  0  0  0
 23 46  1  0  0  0  0
 24 25  2  0  0  0  0
 24 29  1  0  0  0  0
 25 26  1  0  0  0  0
 25 47  1  0  0  0  0
 26 27  2  0  0  0  0
 26 31  1  0  0  0  0
 27 28  1  0  0  0  0
 27 30  1  0  0  0  0
 28 29  2  0  0  0  0
 28 48  1  0  0  0  0
 29 49  1  0  0  0  0
 30 50  1  0  0  0  0
 31 51  1  0  0  0  0
M  END
