
 OpenBabel10072620233D

 48 50  0  0  0  0  0  0  0  0999 V2000
   -1.0951    0.9025   -0.9827 C   0  0  0  0  0  0  0  0  0  0  0  0
   -1.1571   -0.5228   -0.4587 C   0  0  0  0  0  0  0  0  0  0  0  0
    0.1996   -1.2320   -0.5040 C   0  0  0  0  0  0  0  0  0  0  0  0
    1.4036   -0.4303    0.0747 C   0  0  0  0  0  0  0  0  0  0  0  0
    1.3479    1.0189   -0.4794 C   0  0  0  0  0  0  0  0  0  0  0  0
   -0.0055    1.6934   -0.2840 C   0  0  0  0  0  0  0  0  0  0  0  0
    1.3667   -0.3349    1.6507 C   0  0  0  0  0  0  0  0  0  0  0  0
    0.3161   -0.5649    2.2622 O   0  0  0  0  0  0  0  0  0  0  0  0
    2.4452    0.2107    2.3384 N   0  0  0  0  0  0  0  0  0  0  0  0
    2.3257    0.5049    3.7580 C   0  0  0  0  0  0  0  0  0  0  0  0
    3.4586    1.4824    4.0293 C   0  0  0  0  0  0  0  0  0  0  0  0
    4.5577    0.9690    3.1116 C   0  0  0  0  0  0  0  0  0  0  0  0
    3.7961    0.5057    1.8715 C   0  0  0  0  0  0  0  0  0  0  0  0
    2.6753   -1.0386   -0.3883 N   0  0  0  0  0  0  0  0  0  0  0  0
    3.0088   -2.3456   -0.0849 C   0  0  0  0  0  0  0  0  0  0  0  0
    2.3254   -3.0727    0.6214 O   0  0  0  0  0  0  0  0  0  0  0  0
    4.2273   -2.6656   -0.6420 N   0  0  0  0  0  0  0  0  0  0  0  0
    4.8578   -3.9312   -0.6216 C   0  0  0  0  0  0  0  0  0  0  0  0
    4.1494   -5.1173   -0.4106 C   0  0  0  0  0  0  0  0  0  0  0  0
    4.8094   -6.3493   -0.4156 C   0  0  0  0  0  0  0  0  0  0  0  0
    6.1855   -6.4098   -0.6206 C   0  0  0  0  0  0  0  0  0  0  0  0
    6.9040   -5.2362   -0.8435 C   0  0  0  0  0  0  0  0  0  0  0  0
    6.2421   -4.0053   -0.8538 C   0  0  0  0  0  0  0  0  0  0  0  0
    7.1710   -2.5693   -1.1312 Cl  0  0  0  0  0  0  0  0  0  0  0  0
   -2.0629    1.3959   -0.8455 H   0  0  0  0  0  0  0  0  0  0  0  0
   -0.8965    0.8882   -2.0603 H   0  0  0  0  0  0  0  0  0  0  0  0
   -1.8787   -1.0919   -1.0562 H   0  0  0  0  0  0  0  0  0  0  0  0
   -1.5472   -0.5197    0.5641 H   0  0  0  0  0  0  0  0  0  0  0  0
    0.4066   -1.4640   -1.5585 H   0  0  0  0  0  0  0  0  0  0  0  0
    0.0901   -2.1991    0.0002 H   0  0  0  0  0  0  0  0  0  0  0  0
    1.5766    1.0054   -1.5530 H   0  0  0  0  0  0  0  0  0  0  0  0
    2.1092    1.6565   -0.0270 H   0  0  0  0  0  0  0  0  0  0  0  0
    0.0283    2.7089   -0.6918 H   0  0  0  0  0  0  0  0  0  0  0  0
   -0.2342    1.7934    0.7827 H   0  0  0  0  0  0  0  0  0  0  0  0
    2.4709   -0.4329    4.3064 H   0  0  0  0  0  0  0  0  0  0  0  0
    1.3432    0.9180    4.0059 H   0  0  0  0  0  0  0  0  0  0  0  0
    3.7562    1.5084    5.0810 H   0  0  0  0  0  0  0  0  0  0  0  0
    3.1642    2.4960    3.7286 H   0  0  0  0  0  0  0  0  0  0  0  0
    5.0657    0.1178    3.5805 H   0  0  0  0  0  0  0  0  0  0  0  0
    5.3116    1.7279    2.8819 H   0  0  0  0  0  0  0  0  0  0  0  0
    4.2672   -0.3783    1.4390 H   0  0  0  0  0  0  0  0  0  0  0  0
    3.7614    1.3037    1.1276 H   0  0  0  0  0  0  0  0  0  0  0  0
    2.9689   -0.7720   -1.3164 H   0  0  0  0  0  0  0  0  0  0  0  0
    4.8381   -1.8819   -0.8350 H   0  0  0  0  0  0  0  0  0  0  0  0
    3.0757   -5.1145   -0.2437 H   0  0  0  0  0  0  0  0  0  0  0  0
    4.2425   -7.2624   -0.2504 H   0  0  0  0  0  0  0  0  0  0  0  0
    6.6935   -7.3712   -0.6127 H   0  0  0  0  0  0  0  0  0  0  0  0
    7.9779   -5.2838   -0.9991 H   0  0  0  0  0  0  0  0  0  0  0  0
  1  2  1  0  0  0  0
  1  6  1  0  0  0  0
  1 25  1  0  0  0  0
  1 26  1  0  0  0  0
  2  3  1  0  0  0  0
  2 27  1  0  0  0  0
  2 28  1  0  0  0  0
  3  4  1  0  0  0  0
  3 29  1  0  0  0  0
  3 30  1  0  0  0  0
  4  5  1  0  0  0  0
  4  7  1  0  0  0  0
  4 14  1  0  0  0  0
  5  6  1  0  0  0  0
  5 31  1  0  0  0  0
  5 32  1  0  0  0  0
  6 33  1  0  0  0  0
  6 34  1  0  0  0  0
  7  8  2  0  0  0  0
  7  9  1  0  0  0  0
  9 10  1  0  0  0  0
  9 13  1  0  0  0  0
 10 11  1  0  0  0  0
 10 35  1  0  0  0  0
 10 36  1  0  0  0  0
 11 12  1  0  0  0  0
 11 37  1  0  0  0  0
 11 38  1  0  0  0  0
 12 13  1  0  0  0  0
 12 39  1  0  0  0  0
 12 40  1  0  0  0  0
 13 41  1  0  0  0  0
 13 42  1  0  0  0  0
 14 15  1  0  0  0  0
 14 43  1  0  0  0  0
 15 16  2  0  0  0  0
 15 17  1  0  0  0  0
 17 18  1  0  0  0  0
 17 44  1  0  0  0  0
 18 19  2  0  0  0  0
 18 23  1  0  0  0  0
 19 20  1  0  0  0  0
 19 45  1  0  0  0  0
 20 21  2  0  0  0  0
 20 46  1  0  0  0  0
 21 22  1  0  0  0  0
 21 47  1  0  0  0  0
 22 23  2  0  0  0  0
 22 48  1  0  0  0  0
 23 24  1  0  0  0  0
M  END
