
 OpenBabel10072620223D

 43 43  0  0  0  0  0  0  0  0999 V2000
    8.7928   -2.5280   -2.1891 C   0  0  0  0  0  0  0  0  0  0  0  0
    7.4406   -1.8895   -2.4410 C   0  0  0  0  0  0  0  0  0  0  0  0
    7.1015   -1.1074   -1.2998 O   0  0  0  0  0  0  0  0  0  0  0  0
    5.9256   -0.3201   -1.4836 C   0  0  0  0  0  0  0  0  0  0  0  0
    4.6224   -1.1504   -1.3853 C   0  0  0  0  0  0  0  0  0  0  0  0
    4.4329   -1.7716   -0.0835 N   0  0  0  0  0  0  0  0  0  0  0  0
    4.8661   -3.0288    0.1951 C   0  0  0  0  0  0  0  0  0  0  0  0
    5.2819   -3.8215   -0.6457 O   0  0  0  0  0  0  0  0  0  0  0  0
    4.7594   -3.4309    1.5022 N   0  0  0  0  0  0  0  0  0  0  0  0
    4.3229   -2.6997    2.5932 C   0  0  0  0  0  0  0  0  0  0  0  0
    4.1250   -1.4876    2.5799 O   0  0  0  0  0  0  0  0  0  0  0  0
    4.1337   -3.4494    3.8574 C   0  0  0  0  0  0  0  0  0  0  0  0
    4.1693   -2.7487    5.0585 C   0  0  0  0  0  0  0  0  0  0  0  0
    3.9723   -3.3132    6.2755 N   0  0  0  0  0  0  0  0  0  0  0  0
    3.7203   -4.6377    6.2951 C   0  0  0  0  0  0  0  0  0  0  0  0
    3.6632   -5.4243    5.1536 C   0  0  0  0  0  0  0  0  0  0  0  0
    3.8641   -4.8184    3.9123 C   0  0  0  0  0  0  0  0  0  0  0  0
    3.4944   -5.2790    7.4950 O   0  0  0  0  0  0  0  0  0  0  0  0
    3.3758   -4.3748    8.5898 C   0  0  0  0  0  0  0  0  0  0  0  0
    5.8568    0.7097   -0.4853 O   0  0  0  0  0  0  0  0  0  0  0  0
    6.9435    1.6258   -0.5815 C   0  0  0  0  0  0  0  0  0  0  0  0
    6.7689    2.6838    0.4900 C   0  0  0  0  0  0  0  0  0  0  0  0
    9.0963   -3.1508   -3.0356 H   0  0  0  0  0  0  0  0  0  0  0  0
    8.7640   -3.1450   -1.2847 H   0  0  0  0  0  0  0  0  0  0  0  0
    9.5549   -1.7577   -2.0281 H   0  0  0  0  0  0  0  0  0  0  0  0
    6.6923   -2.6695   -2.6071 H   0  0  0  0  0  0  0  0  0  0  0  0
    7.4968   -1.2510   -3.3300 H   0  0  0  0  0  0  0  0  0  0  0  0
    5.9496    0.1668   -2.4672 H   0  0  0  0  0  0  0  0  0  0  0  0
    4.5947   -1.9248   -2.1586 H   0  0  0  0  0  0  0  0  0  0  0  0
    3.7607   -0.4890   -1.5226 H   0  0  0  0  0  0  0  0  0  0  0  0
    4.3472   -1.1414    0.7139 H   0  0  0  0  0  0  0  0  0  0  0  0
    5.0591   -4.3860    1.6189 H   0  0  0  0  0  0  0  0  0  0  0  0
    4.3598   -1.6786    5.0828 H   0  0  0  0  0  0  0  0  0  0  0  0
    3.4469   -6.4846    5.2311 H   0  0  0  0  0  0  0  0  0  0  0  0
    3.7729   -5.4220    3.0151 H   0  0  0  0  0  0  0  0  0  0  0  0
    3.1501   -4.9616    9.4854 H   0  0  0  0  0  0  0  0  0  0  0  0
    2.5479   -3.6739    8.4348 H   0  0  0  0  0  0  0  0  0  0  0  0
    4.3160   -3.8421    8.7682 H   0  0  0  0  0  0  0  0  0  0  0  0
    6.9479    2.0954   -1.5715 H   0  0  0  0  0  0  0  0  0  0  0  0
    7.8953    1.1071   -0.4260 H   0  0  0  0  0  0  0  0  0  0  0  0
    5.8203    3.2147    0.3593 H   0  0  0  0  0  0  0  0  0  0  0  0
    7.5864    3.4091    0.4593 H   0  0  0  0  0  0  0  0  0  0  0  0
    6.7439    2.2237    1.4834 H   0  0  0  0  0  0  0  0  0  0  0  0
  1  2  1  0  0  0  0
  1 23  1  0  0  0  0
  1 24  1  0  0  0  0
  1 25  1  0  0  0  0
  2  3  1  0  0  0  0
  2 26  1  0  0  0  0
  2 27  1  0  0  0  0
  3  4  1  0  0  0  0
  4  5  1  0  0  0  0
  4 20  1  0  0  0  0
  4 28  1  0  0  0  0
  5  6  1  0  0  0  0
  5 29  1  0  0  0  0
  5 30  1  0  0  0  0
  6  7  1  0  0  0  0
  6 31  1  0  0  0  0
  7  8  2  0  0  0  0
  7  9  1  0  0  0  0
  9 10  1  0  0  0  0
  9 32  1  0  0  0  0
 10 11  2  0  0  0  0
 10 12  1  0  0  0  0
 12 13  2  0  0  0  0
 12 17  1  0  0  0  0
 13 14  1  0  0  0  0
 13 33  1  0  0  0  0
 14 15  2  0  0  0  0
 15 16  1  0  0  0  0
 15 18  1  0  0  0  0
 16 17  2  0  0  0  0
 16 34  1  0  0  0  0
 17 35  1  0  0  0  0
 18 19  1  0  0  0  0
 19 36  1  0  0  0  0
 19 37  1  0  0  0  0
 19 38  1  0  0  0  0
 20 21  1  0  0  0  0
 21 22  1  0  0  0  0
 21 39  1  0  0  0  0
 21 40  1  0  0  0  0
 22 41  1  0  0  0  0
 22 42  1  0  0  0  0
 22 43  1  0  0  0  0
M  END
