
 OpenBabel10072616323D

 36 38  0  0  0  0  0  0  0  0999 V2000
    2.4313   -1.0307   -0.7142 C   0  0  0  0  0  0  0  0  0  0  0  0
    1.0159   -0.5620   -0.5542 C   0  0  0  0  0  0  0  0  0  0  0  0
    0.7050    0.8005   -0.5405 C   0  0  0  0  0  0  0  0  0  0  0  0
   -0.6202    1.2303   -0.3991 C   0  0  0  0  0  0  0  0  0  0  0  0
   -1.6563    0.3049   -0.2748 C   0  0  0  0  0  0  0  0  0  0  0  0
   -1.3433   -1.0601   -0.2817 C   0  0  0  0  0  0  0  0  0  0  0  0
   -0.0202   -1.4907   -0.4225 C   0  0  0  0  0  0  0  0  0  0  0  0
   -3.0162    0.6523   -0.1276 N   0  0  0  0  0  0  0  0  0  0  0  0
   -3.5851    1.9158   -0.2234 C   0  0  0  0  0  0  0  0  0  0  0  0
   -2.9758    2.9358   -0.5151 O   0  0  0  0  0  0  0  0  0  0  0  0
   -4.9359    1.8511    0.0513 N   0  0  0  0  0  0  0  0  0  0  0  0
   -5.8467    2.8722   -0.0567 C   0  0  0  0  0  0  0  0  0  0  0  0
   -7.0856    2.7424    0.3595 N   0  0  0  0  0  0  0  0  0  0  0  0
   -7.8332    3.8764    0.1192 N   0  0  0  0  0  0  0  0  0  0  0  0
   -7.1372    4.8297   -0.4763 C   0  0  0  0  0  0  0  0  0  0  0  0
   -5.5083    4.3674   -0.7901 S   0  0  0  0  0  0  0  0  0  0  0  0
   -7.6854    6.1420   -0.8656 C   0  0  0  0  0  0  0  0  0  0  0  0
   -6.8895    7.2113   -1.3121 C   0  0  0  0  0  0  0  0  0  0  0  0
   -7.4641    8.4376   -1.6707 C   0  0  0  0  0  0  0  0  0  0  0  0
   -8.8424    8.6112   -1.5867 C   0  0  0  0  0  0  0  0  0  0  0  0
   -9.6521    7.5712   -1.1432 C   0  0  0  0  0  0  0  0  0  0  0  0
   -9.0755    6.3479   -0.7842 C   0  0  0  0  0  0  0  0  0  0  0  0
   -9.5452   10.1169   -2.0293 Cl  0  0  0  0  0  0  0  0  0  0  0  0
    3.1297   -0.1892   -0.7694 H   0  0  0  0  0  0  0  0  0  0  0  0
    2.5323   -1.6128   -1.6357 H   0  0  0  0  0  0  0  0  0  0  0  0
    2.7236   -1.6521    0.1383 H   0  0  0  0  0  0  0  0  0  0  0  0
    1.4900    1.5473   -0.6401 H   0  0  0  0  0  0  0  0  0  0  0  0
   -0.8038    2.3000   -0.3862 H   0  0  0  0  0  0  0  0  0  0  0  0
   -2.1218   -1.8119   -0.1845 H   0  0  0  0  0  0  0  0  0  0  0  0
    0.1963   -2.5567   -0.4305 H   0  0  0  0  0  0  0  0  0  0  0  0
   -3.6576   -0.1227   -0.0557 H   0  0  0  0  0  0  0  0  0  0  0  0
   -5.3048    1.0359    0.5129 H   0  0  0  0  0  0  0  0  0  0  0  0
   -5.8080    7.1197   -1.3875 H   0  0  0  0  0  0  0  0  0  0  0  0
   -6.8276    9.2497   -2.0134 H   0  0  0  0  0  0  0  0  0  0  0  0
  -10.7291    7.6998   -1.0733 H   0  0  0  0  0  0  0  0  0  0  0  0
   -9.7276    5.5455   -0.4396 H   0  0  0  0  0  0  0  0  0  0  0  0
  1  2  1  0  0  0  0
  1 24  1  0  0  0  0
  1 25  1  0  0  0  0
  1 26  1  0  0  0  0
  2  3  2  0  0  0  0
  2  7  1  0  0  0  0
  3  4  1  0  0  0  0
  3 27  1  0  0  0  0
  4  5  2  0  0  0  0
  4 28  1  0  0  0  0
  5  6  1  0  0  0  0
  5  8  1  0  0  0  0
  6  7  2  0  0  0  0
  6 29  1  0  0  0  0
  7 30  1  0  0  0  0
  8  9  1  0  0  0  0
  8 31  1  0  0  0  0
  9 10  2  0  0  0  0
  9 11  1  0  0  0  0
 11 12  1  0  0  0  0
 11 32  1  0  0  0  0
 12 13  2  0  0  0  0
 12 16  1  0  0  0  0
 13 14  1  0  0  0  0
 14 15  2  0  0  0  0
 15 16  1  0  0  0  0
 15 17  1  0  0  0  0
 17 18  2  0  0  0  0
 17 22  1  0  0  0  0
 18 19  1  0  0  0  0
 18 33  1  0  0  0  0
 19 20  2  0  0  0  0
 19 34  1  0  0  0  0
 20 21  1  0  0  0  0
 20 23  1  0  0  0  0
 21 22  2  0  0  0  0
 21 35  1  0  0  0  0
 22 36  1  0  0  0  0
M  END
