
 OpenBabel10072620203D

 78 83  0  0  0  0  0  0  0  0999 V2000
    5.7001   -2.4954   -1.2440 C   0  0  0  0  0  0  0  0  0  0  0  0
    4.5062   -1.9303   -0.5881 N   0  0  0  0  0  0  0  0  0  0  0  0
    4.5525   -1.7807    0.8176 C   0  0  0  0  0  0  0  0  0  0  0  0
    3.8636   -0.7373    1.4484 C   0  0  0  0  0  0  0  0  0  0  0  0
    3.9213   -0.5583    2.8300 C   0  0  0  0  0  0  0  0  0  0  0  0
    4.6712   -1.3772    3.6006 N   0  3  0  0  0  0  0  0  0  0  0  0
    5.3227   -2.4186    3.0395 C   0  0  0  0  0  0  0  0  0  0  0  0
    5.2689   -2.6388    1.6586 C   0  0  0  0  0  0  0  0  0  0  0  0
    4.8303   -1.1023    5.0597 C   0  0  0  0  0  0  0  0  0  0  0  0
    6.0282   -0.1999    5.2678 C   0  0  0  0  0  0  0  0  0  0  0  0
    5.8973    1.1925    5.2449 C   0  0  0  0  0  0  0  0  0  0  0  0
    7.0340    2.0184    5.2234 C   0  0  0  0  0  0  0  0  0  0  0  0
    8.3401    1.4937    5.2361 C   0  0  0  0  0  0  0  0  0  0  0  0
    8.4475    0.1000    5.3748 C   0  0  0  0  0  0  0  0  0  0  0  0
    7.3172   -0.7327    5.3862 C   0  0  0  0  0  0  0  0  0  0  0  0
    9.5393    2.3559    5.0396 C   0  0  0  0  0  0  0  0  0  0  0  0
    9.5707    3.6990    5.4480 C   0  0  0  0  0  0  0  0  0  0  0  0
   10.6283    4.5517    5.0964 C   0  0  0  0  0  0  0  0  0  0  0  0
   11.7035    4.0875    4.3297 C   0  0  0  0  0  0  0  0  0  0  0  0
   11.7367    2.7313    3.9900 C   0  0  0  0  0  0  0  0  0  0  0  0
   10.6693    1.8850    4.3364 C   0  0  0  0  0  0  0  0  0  0  0  0
   12.7326    5.0433    3.7895 C   0  0  0  0  0  0  0  0  0  0  0  0
   13.8845    5.2498    4.6966 N   0  3  0  0  0  0  0  0  0  0  0  0
   13.8506    6.2550    5.5992 C   0  0  0  0  0  0  0  0  0  0  0  0
   15.0026    6.6512    6.2750 C   0  0  0  0  0  0  0  0  0  0  0  0
   16.2230    6.0220    6.0254 C   0  0  0  0  0  0  0  0  0  0  0  0
   16.1933    4.9126    5.1698 C   0  0  0  0  0  0  0  0  0  0  0  0
   15.0194    4.5390    4.5171 C   0  0  0  0  0  0  0  0  0  0  0  0
   17.4497    6.4769    6.5460 N   0  0  0  0  0  0  0  0  0  0  0  0
   17.4852    7.1051    7.8776 C   0  0  0  0  0  0  0  0  0  0  0  0
   18.6939    6.5441    5.8479 C   0  0  0  0  0  0  0  0  0  0  0  0
   18.7336    6.8255    4.4697 C   0  0  0  0  0  0  0  0  0  0  0  0
   19.9524    6.8739    3.7774 C   0  0  0  0  0  0  0  0  0  0  0  0
   21.1591    6.6637    4.4336 C   0  0  0  0  0  0  0  0  0  0  0  0
   21.1346    6.4169    5.7997 C   0  0  0  0  0  0  0  0  0  0  0  0
   19.9247    6.3542    6.5021 C   0  0  0  0  0  0  0  0  0  0  0  0
   22.6100    6.1732    6.6485 Cl  0  0  0  0  0  0  0  0  0  0  0  0
   19.9522    7.2066    2.0895 Cl  0  0  0  0  0  0  0  0  0  0  0  0
    3.3950   -1.6965   -1.4543 C   0  0  0  0  0  0  0  0  0  0  0  0
    2.0753   -1.7583   -0.9679 C   0  0  0  0  0  0  0  0  0  0  0  0
    0.9738   -1.4764   -1.7893 C   0  0  0  0  0  0  0  0  0  0  0  0
    1.1454   -1.1592   -3.1320 C   0  0  0  0  0  0  0  0  0  0  0  0
    2.4357   -1.1269   -3.6384 C   0  0  0  0  0  0  0  0  0  0  0  0
    3.5465   -1.3923   -2.8226 C   0  0  0  0  0  0  0  0  0  0  0  0
    2.6934   -0.7130   -5.2907 Cl  0  0  0  0  0  0  0  0  0  0  0  0
   -0.6109   -1.5323   -1.1201 Cl  0  0  0  0  0  0  0  0  0  0  0  0
    6.5507   -2.6059   -0.5629 H   0  0  0  0  0  0  0  0  0  0  0  0
    6.0698   -1.8431   -2.0427 H   0  0  0  0  0  0  0  0  0  0  0  0
    5.4720   -3.4832   -1.6600 H   0  0  0  0  0  0  0  0  0  0  0  0
    3.2774   -0.0369    0.8567 H   0  0  0  0  0  0  0  0  0  0  0  0
    3.3949    0.2578    3.3170 H   0  0  0  0  0  0  0  0  0  0  0  0
    5.8964   -3.0627    3.6999 H   0  0  0  0  0  0  0  0  0  0  0  0
    5.7833   -3.5100    1.2602 H   0  0  0  0  0  0  0  0  0  0  0  0
    4.9519   -2.0609    5.5759 H   0  0  0  0  0  0  0  0  0  0  0  0
    3.8987   -0.6596    5.4299 H   0  0  0  0  0  0  0  0  0  0  0  0
    4.9159    1.6644    5.2122 H   0  0  0  0  0  0  0  0  0  0  0  0
    6.8717    3.0941    5.1637 H   0  0  0  0  0  0  0  0  0  0  0  0
    9.4264   -0.3663    5.4662 H   0  0  0  0  0  0  0  0  0  0  0  0
    7.4747   -1.8066    5.4701 H   0  0  0  0  0  0  0  0  0  0  0  0
    8.7406    4.1261    6.0117 H   0  0  0  0  0  0  0  0  0  0  0  0
   10.5589    5.5985    5.3857 H   0  0  0  0  0  0  0  0  0  0  0  0
   12.5499    2.3188    3.3935 H   0  0  0  0  0  0  0  0  0  0  0  0
   10.7075    0.8554    3.9790 H   0  0  0  0  0  0  0  0  0  0  0  0
   12.2784    6.0273    3.6076 H   0  0  0  0  0  0  0  0  0  0  0  0
   13.1141    4.6953    2.8197 H   0  0  0  0  0  0  0  0  0  0  0  0
   12.9183    6.7995    5.7160 H   0  0  0  0  0  0  0  0  0  0  0  0
   14.9340    7.5199    6.9257 H   0  0  0  0  0  0  0  0  0  0  0  0
   17.1112    4.3601    4.9698 H   0  0  0  0  0  0  0  0  0  0  0  0
   14.9945    3.7124    3.8117 H   0  0  0  0  0  0  0  0  0  0  0  0
   16.5003    7.2907    8.3138 H   0  0  0  0  0  0  0  0  0  0  0  0
   17.9938    8.0755    7.8318 H   0  0  0  0  0  0  0  0  0  0  0  0
   18.0109    6.4603    8.5900 H   0  0  0  0  0  0  0  0  0  0  0  0
   17.8170    7.0503    3.9289 H   0  0  0  0  0  0  0  0  0  0  0  0
   22.1038    6.6999    3.8929 H   0  0  0  0  0  0  0  0  0  0  0  0
   19.9671    6.1378    7.5676 H   0  0  0  0  0  0  0  0  0  0  0  0
    1.8823   -2.0457    0.0637 H   0  0  0  0  0  0  0  0  0  0  0  0
    0.2892   -0.9417   -3.7696 H   0  0  0  0  0  0  0  0  0  0  0  0
    4.5252   -1.3314   -3.2896 H   0  0  0  0  0  0  0  0  0  0  0  0
  1  2  1  0  0  0  0
  1 47  1  0  0  0  0
  1 48  1  0  0  0  0
  1 49  1  0  0  0  0
  2  3  1  0  0  0  0
  2 39  1  0  0  0  0
  3  4  2  0  0  0  0
  3  8  1  0  0  0  0
  4  5  1  0  0  0  0
  4 50  1  0  0  0  0
  5  6  2  0  0  0  0
  5 51  1  0  0  0  0
  6  7  1  0  0  0  0
  6  9  1  0  0  0  0
  7  8  2  0  0  0  0
  7 52  1  0  0  0  0
  8 53  1  0  0  0  0
  9 10  1  0  0  0  0
  9 54  1  0  0  0  0
  9 55  1  0  0  0  0
 10 11  2  0  0  0  0
 10 15  1  0  0  0  0
 11 12  1  0  0  0  0
 11 56  1  0  0  0  0
 12 13  2  0  0  0  0
 12 57  1  0  0  0  0
 13 14  1  0  0  0  0
 13 16  1  0  0  0  0
 14 15  2  0  0  0  0
 14 58  1  0  0  0  0
 15 59  1  0  0  0  0
 16 17  2  0  0  0  0
 16 21  1  0  0  0  0
 17 18  1  0  0  0  0
 17 60  1  0  0  0  0
 18 19  2  0  0  0  0
 18 61  1  0  0  0  0
 19 20  1  0  0  0  0
 19 22  1  0  0  0  0
 20 21  2  0  0  0  0
 20 62  1  0  0  0  0
 21 63  1  0  0  0  0
 22 23  1  0  0  0  0
 22 64  1  0  0  0  0
 22 65  1  0  0  0  0
 23 24  2  0  0  0  0
 23 28  1  0  0  0  0
 24 25  1  0  0  0  0
 24 66  1  0  0  0  0
 25 26  2  0  0  0  0
 25 67  1  0  0  0  0
 26 27  1  0  0  0  0
 26 29  1  0  0  0  0
 27 28  2  0  0  0  0
 27 68  1  0  0  0  0
 28 69  1  0  0  0  0
 29 30  1  0  0  0  0
 29 31  1  0  0  0  0
 30 70  1  0  0  0  0
 30 71  1  0  0  0  0
 30 72  1  0  0  0  0
 31 32  2  0  0  0  0
 31 36  1  0  0  0  0
 32 33  1  0  0  0  0
 32 73  1  0  0  0  0
 33 34  2  0  0  0  0
 33 38  1  0  0  0  0
 34 35  1  0  0  0  0
 34 74  1  0  0  0  0
 35 36  2  0  0  0  0
 35 37  1  0  0  0  0
 36 75  1  0  0  0  0
 39 40  2  0  0  0  0
 39 44  1  0  0  0  0
 40 41  1  0  0  0  0
 40 76  1  0  0  0  0
 41 42  2  0  0  0  0
 41 46  1  0  0  0  0
 42 43  1  0  0  0  0
 42 77  1  0  0  0  0
 43 44  2  0  0  0  0
 43 45  1  0  0  0  0
 44 78  1  0  0  0  0
M  CHG  2   6   1  23   1
M  END
