
 OpenBabel10072616343D

 49 52  0  0  0  0  0  0  0  0999 V2000
    2.5804   -0.5313   -0.6305 C   0  0  0  0  0  0  0  0  0  0  0  0
    1.8659    0.5320   -1.4149 C   0  0  0  0  0  0  0  0  0  0  0  0
    1.0977    1.5132   -0.7600 C   0  0  0  0  0  0  0  0  0  0  0  0
    0.4010    2.4843   -1.4817 C   0  0  0  0  0  0  0  0  0  0  0  0
    0.4922    2.4603   -2.8822 C   0  0  0  0  0  0  0  0  0  0  0  0
    1.2380    1.4825   -3.5431 C   0  0  0  0  0  0  0  0  0  0  0  0
    1.9167    0.5151   -2.8109 C   0  0  0  0  0  0  0  0  0  0  0  0
   -0.4005    3.5110   -0.9402 N   0  0  0  0  0  0  0  0  0  0  0  0
   -0.8285    3.8476    0.3307 C   0  0  0  0  0  0  0  0  0  0  0  0
   -0.5549    3.0238    1.7701 S   0  0  0  0  0  0  0  0  0  0  0  0
   -1.6499    4.9630    0.3264 N   0  0  0  0  0  0  0  0  0  0  0  0
   -1.0561    5.9810   -0.0937 N   0  0  0  0  0  0  0  0  0  0  0  0
   -1.8245    7.1538   -0.0135 C   0  0  0  0  0  0  0  0  0  0  0  0
   -2.9460    7.3903    0.7530 C   0  0  0  0  0  0  0  0  0  0  0  0
   -3.3231    8.6957    0.5293 N   0  0  0  0  0  0  0  0  0  0  0  0
   -2.4520    9.2999   -0.3640 C   0  0  0  0  0  0  0  0  0  0  0  0
   -1.4979    8.3391   -0.7203 C   0  0  0  0  0  0  0  0  0  0  0  0
   -0.4777    8.6897   -1.6290 C   0  0  0  0  0  0  0  0  0  0  0  0
   -0.4462    9.9870   -2.1447 C   0  0  0  0  0  0  0  0  0  0  0  0
   -1.3955   10.9338   -1.7743 C   0  0  0  0  0  0  0  0  0  0  0  0
   -2.4168   10.6069   -0.8772 C   0  0  0  0  0  0  0  0  0  0  0  0
    0.9194   10.4630   -3.3641 Br  0  0  0  0  0  0  0  0  0  0  0  0
   -4.5032    9.3302    1.1215 C   0  0  0  0  0  0  0  0  0  0  0  0
   -4.2483   10.1097    2.3972 C   0  0  0  0  0  0  0  0  0  0  0  0
   -3.0328   10.0359    3.1025 C   0  0  0  0  0  0  0  0  0  0  0  0
   -2.8467   10.7262    4.3043 C   0  0  0  0  0  0  0  0  0  0  0  0
   -3.8715   11.5040    4.8318 C   0  0  0  0  0  0  0  0  0  0  0  0
   -5.0840   11.5955    4.1536 C   0  0  0  0  0  0  0  0  0  0  0  0
   -5.2723   10.9035    2.9507 C   0  0  0  0  0  0  0  0  0  0  0  0
   -6.8156   11.0614    2.1833 Cl  0  0  0  0  0  0  0  0  0  0  0  0
   -3.6218    6.6184    1.6004 O   0  0  0  0  0  0  0  0  0  0  0  0
    2.7693   -0.2084    0.3984 H   0  0  0  0  0  0  0  0  0  0  0  0
    3.5518   -0.7579   -1.0843 H   0  0  0  0  0  0  0  0  0  0  0  0
    1.9768   -1.4440   -0.6058 H   0  0  0  0  0  0  0  0  0  0  0  0
    1.0831    1.4841    0.3213 H   0  0  0  0  0  0  0  0  0  0  0  0
   -0.0318    3.1969   -3.4867 H   0  0  0  0  0  0  0  0  0  0  0  0
    1.2783    1.4702   -4.6291 H   0  0  0  0  0  0  0  0  0  0  0  0
    2.4825   -0.2542   -3.3314 H   0  0  0  0  0  0  0  0  0  0  0  0
   -0.7712    4.1624   -1.6227 H   0  0  0  0  0  0  0  0  0  0  0  0
    0.2701    7.9565   -1.9155 H   0  0  0  0  0  0  0  0  0  0  0  0
   -1.3513   11.9427   -2.1783 H   0  0  0  0  0  0  0  0  0  0  0  0
   -3.1503   11.3539   -0.5888 H   0  0  0  0  0  0  0  0  0  0  0  0
   -5.2376    8.5397    1.3121 H   0  0  0  0  0  0  0  0  0  0  0  0
   -4.9173    9.9845    0.3462 H   0  0  0  0  0  0  0  0  0  0  0  0
   -2.2044    9.4328    2.7366 H   0  0  0  0  0  0  0  0  0  0  0  0
   -1.8973   10.6463    4.8296 H   0  0  0  0  0  0  0  0  0  0  0  0
   -3.7278   12.0330    5.7706 H   0  0  0  0  0  0  0  0  0  0  0  0
   -5.8830   12.2038    4.5713 H   0  0  0  0  0  0  0  0  0  0  0  0
   -3.1562    5.7596    1.6273 H   0  0  0  0  0  0  0  0  0  0  0  0
  1  2  1  0  0  0  0
  1 32  1  0  0  0  0
  1 33  1  0  0  0  0
  1 34  1  0  0  0  0
  2  3  2  0  0  0  0
  2  7  1  0  0  0  0
  3  4  1  0  0  0  0
  3 35  1  0  0  0  0
  4  5  2  0  0  0  0
  4  8  1  0  0  0  0
  5  6  1  0  0  0  0
  5 36  1  0  0  0  0
  6  7  2  0  0  0  0
  6 37  1  0  0  0  0
  7 38  1  0  0  0  0
  8  9  1  0  0  0  0
  8 39  1  0  0  0  0
  9 10  2  0  0  0  0
  9 11  1  0  0  0  0
 11 12  2  3  0  0  0
 12 13  1  0  0  0  0
 13 14  2  0  0  0  0
 13 17  1  0  0  0  0
 14 15  1  0  0  0  0
 14 31  1  0  0  0  0
 15 16  1  0  0  0  0
 15 23  1  0  0  0  0
 16 17  2  0  0  0  0
 16 21  1  0  0  0  0
 17 18  1  0  0  0  0
 18 19  2  0  0  0  0
 18 40  1  0  0  0  0
 19 20  1  0  0  0  0
 19 22  1  0  0  0  0
 20 21  2  0  0  0  0
 20 41  1  0  0  0  0
 21 42  1  0  0  0  0
 23 24  1  0  0  0  0
 23 43  1  0  0  0  0
 23 44  1  0  0  0  0
 24 25  2  0  0  0  0
 24 29  1  0  0  0  0
 25 26  1  0  0  0  0
 25 45  1  0  0  0  0
 26 27  2  0  0  0  0
 26 46  1  0  0  0  0
 27 28  1  0  0  0  0
 27 47  1  0  0  0  0
 28 29  2  0  0  0  0
 28 48  1  0  0  0  0
 29 30  1  0  0  0  0
 31 49  1  0  0  0  0
M  END
