
 OpenBabel10072616323D

 36 38  0  0  1  0  0  0  0  0999 V2000
    2.5430    1.0134   -1.4007 C   0  0  0  0  0  0  0  0  0  0  0  0
    2.6340    0.1903   -0.1173 C   0  0  3  0  0  0  0  0  0  0  0  0
    1.2625    0.0014    0.5173 C   0  0  0  0  0  0  0  0  0  0  0  0
    0.1954   -0.5615   -0.2028 C   0  0  0  0  0  0  0  0  0  0  0  0
   -1.0512   -0.7470    0.3981 C   0  0  0  0  0  0  0  0  0  0  0  0
   -1.2457   -0.3829    1.7282 C   0  0  0  0  0  0  0  0  0  0  0  0
   -0.1928    0.1600    2.4610 C   0  0  0  0  0  0  0  0  0  0  0  0
    1.0546    0.3478    1.8619 C   0  0  0  0  0  0  0  0  0  0  0  0
    3.2412   -1.1238   -0.3490 N   0  0  0  0  0  0  0  0  0  0  0  0
    4.8285   -1.3256   -0.8149 S   0  0  0  0  0  0  0  0  0  0  0  0
    5.1383   -2.7236   -0.6202 O   0  0  0  0  0  0  0  0  0  0  0  0
    5.0255   -0.6772   -2.0914 O   0  0  0  0  0  0  0  0  0  0  0  0
    5.7313   -0.4108    0.4126 C   0  0  0  0  0  0  0  0  0  0  0  0
    5.7715   -0.8997    1.7245 C   0  0  0  0  0  0  0  0  0  0  0  0
    6.4724   -0.1611    2.6598 C   0  0  0  0  0  0  0  0  0  0  0  0
    7.1259    1.0194    2.3036 C   0  0  0  0  0  0  0  0  0  0  0  0
    7.1060    1.5046    1.0075 C   0  0  0  0  0  0  0  0  0  0  0  0
    6.3974    0.7763    0.0482 C   0  0  0  0  0  0  0  0  0  0  0  0
    7.7778    1.6266    3.3733 N   0  0  0  0  0  0  0  0  0  0  0  0
    7.6748    0.9770    4.5814 C   0  0  0  0  0  0  0  0  0  0  0  0
    8.1679    1.3418    5.6350 O   0  0  0  0  0  0  0  0  0  0  0  0
    6.6971   -0.4882    4.3860 S   0  0  0  0  0  0  0  0  0  0  0  0
    1.9398    1.9159   -1.2492 H   0  0  0  0  0  0  0  0  0  0  0  0
    2.0995    0.4428   -2.2239 H   0  0  0  0  0  0  0  0  0  0  0  0
    3.5328    1.3461   -1.7281 H   0  0  0  0  0  0  0  0  0  0  0  0
    3.2516    0.7456    0.5977 H   0  0  0  0  0  0  0  0  0  0  0  0
    0.3297   -0.8669   -1.2389 H   0  0  0  0  0  0  0  0  0  0  0  0
   -1.8704   -1.1783   -0.1721 H   0  0  0  0  0  0  0  0  0  0  0  0
   -2.2163   -0.5288    2.1955 H   0  0  0  0  0  0  0  0  0  0  0  0
   -0.3439    0.4368    3.5016 H   0  0  0  0  0  0  0  0  0  0  0  0
    1.8624    0.7664    2.4583 H   0  0  0  0  0  0  0  0  0  0  0  0
    2.8538   -1.9142    0.1648 H   0  0  0  0  0  0  0  0  0  0  0  0
    5.2730   -1.8247    1.9984 H   0  0  0  0  0  0  0  0  0  0  0  0
    7.6241    2.4181    0.7339 H   0  0  0  0  0  0  0  0  0  0  0  0
    6.3682    1.1333   -0.9810 H   0  0  0  0  0  0  0  0  0  0  0  0
    8.3054    2.4834    3.3048 H   0  0  0  0  0  0  0  0  0  0  0  0
  1  2  1  0  0  0  0
  1 23  1  0  0  0  0
  1 24  1  0  0  0  0
  1 25  1  0  0  0  0
  2  3  1  0  0  0  0
  2  9  1  0  0  0  0
  2 26  1  0  0  0  0
  3  4  2  0  0  0  0
  3  8  1  0  0  0  0
  4  5  1  0  0  0  0
  4 27  1  0  0  0  0
  5  6  2  0  0  0  0
  5 28  1  0  0  0  0
  6  7  1  0  0  0  0
  6 29  1  0  0  0  0
  7  8  2  0  0  0  0
  7 30  1  0  0  0  0
  8 31  1  0  0  0  0
  9 10  1  0  0  0  0
  9 32  1  0  0  0  0
 10 11  2  0  0  0  0
 10 12  2  0  0  0  0
 10 13  1  0  0  0  0
 13 14  2  0  0  0  0
 13 18  1  0  0  0  0
 14 15  1  0  0  0  0
 14 33  1  0  0  0  0
 15 16  2  0  0  0  0
 15 22  1  0  0  0  0
 16 17  1  0  0  0  0
 16 19  1  0  0  0  0
 17 18  2  0  0  0  0
 17 34  1  0  0  0  0
 18 35  1  0  0  0  0
 19 20  1  0  0  0  0
 19 36  1  0  0  0  0
 20 21  2  0  0  0  0
 20 22  1  0  0  0  0
M  END
