
 OpenBabel10072616323D

 27 28  0  0  0  0  0  0  0  0999 V2000
    1.8282    1.1475   -0.7749 C   0  0  0  0  0  0  0  0  0  0  0  0
    0.4690    1.3397   -0.5148 C   0  0  0  0  0  0  0  0  0  0  0  0
   -0.2205    0.4233    0.2794 C   0  0  0  0  0  0  0  0  0  0  0  0
    0.4364   -0.6833    0.8197 C   0  0  0  0  0  0  0  0  0  0  0  0
    1.7955   -0.8812    0.5638 C   0  0  0  0  0  0  0  0  0  0  0  0
    2.4897    0.0405   -0.2266 C   0  0  0  0  0  0  0  0  0  0  0  0
    4.1873   -0.2716   -0.6576 S   0  0  0  0  0  0  0  0  0  0  0  0
    4.4634   -1.6818   -0.5084 O   0  0  0  0  0  0  0  0  0  0  0  0
    4.4254    0.3897   -1.9261 O   0  0  0  0  0  0  0  0  0  0  0  0
    5.0461    0.6183    0.4500 N   0  0  0  0  0  0  0  0  0  0  0  0
    5.3402    0.0484    1.6973 C   0  0  0  0  0  0  0  0  0  0  0  0
    4.6610   -0.9304    2.2517 N   0  0  0  0  0  0  0  0  0  0  0  0
    5.1435   -1.2525    3.5086 N   0  0  0  0  0  0  0  0  0  0  0  0
    6.1663   -0.4870    3.8252 C   0  0  0  0  0  0  0  0  0  0  0  0
    6.6051    0.6786    2.6645 S   0  0  0  0  0  0  0  0  0  0  0  0
    7.0777   -0.5760    5.3254 S   0  0  0  0  0  0  0  0  0  0  0  0
    8.3648   -1.1224    4.9679 O   0  0  0  0  0  0  0  0  0  0  0  0
    6.9211    0.7158    5.9570 O   0  0  0  0  0  0  0  0  0  0  0  0
    6.3164   -1.6801    6.3475 N   0  0  0  0  0  0  0  0  0  0  0  0
   -1.8962    0.6601    0.5921 Cl  0  0  0  0  0  0  0  0  0  0  0  0
    2.3516    1.8510   -1.4189 H   0  0  0  0  0  0  0  0  0  0  0  0
   -0.0507    2.1930   -0.9447 H   0  0  0  0  0  0  0  0  0  0  0  0
   -0.1072   -1.4010    1.4290 H   0  0  0  0  0  0  0  0  0  0  0  0
    2.2967   -1.7574    0.9717 H   0  0  0  0  0  0  0  0  0  0  0  0
    5.6669    1.3262    0.0693 H   0  0  0  0  0  0  0  0  0  0  0  0
    5.7904   -2.3881    5.8322 H   0  0  0  0  0  0  0  0  0  0  0  0
    5.7703   -1.1852    7.0531 H   0  0  0  0  0  0  0  0  0  0  0  0
  1  2  2  0  0  0  0
  1  6  1  0  0  0  0
  1 21  1  0  0  0  0
  2  3  1  0  0  0  0
  2 22  1  0  0  0  0
  3  4  2  0  0  0  0
  3 20  1  0  0  0  0
  4  5  1  0  0  0  0
  4 23  1  0  0  0  0
  5  6  2  0  0  0  0
  5 24  1  0  0  0  0
  6  7  1  0  0  0  0
  7  8  2  0  0  0  0
  7  9  2  0  0  0  0
  7 10  1  0  0  0  0
 10 11  1  0  0  0  0
 10 25  1  0  0  0  0
 11 12  2  0  0  0  0
 11 15  1  0  0  0  0
 12 13  1  0  0  0  0
 13 14  2  0  0  0  0
 14 15  1  0  0  0  0
 14 16  1  0  0  0  0
 16 17  2  0  0  0  0
 16 18  2  0  0  0  0
 16 19  1  0  0  0  0
 19 26  1  0  0  0  0
 19 27  1  0  0  0  0
M  END
