
 OpenBabel10072620083D

 52 55  0  0  0  0  0  0  0  0999 V2000
    2.4988   -0.4670   -0.1581 C   0  0  0  0  0  0  0  0  0  0  0  0
    1.0357   -0.1621   -0.0006 C   0  0  0  0  0  0  0  0  0  0  0  0
    0.5054    1.1373    0.0225 C   0  0  0  0  0  0  0  0  0  0  0  0
   -0.8788    1.3325    0.0979 C   0  0  0  0  0  0  0  0  0  0  0  0
   -1.7504    0.2459    0.1710 C   0  0  0  0  0  0  0  0  0  0  0  0
   -1.2365   -1.0467    0.1143 C   0  0  0  0  0  0  0  0  0  0  0  0
    0.1436   -1.2492    0.0335 C   0  0  0  0  0  0  0  0  0  0  0  0
   -3.1771    0.4086    0.1454 N   0  0  0  0  0  0  0  0  0  0  0  0
   -3.7976    1.4049    1.0687 C   0  0  0  0  0  0  0  0  0  0  0  0
   -5.0656    1.9251    0.3921 C   0  0  0  0  0  0  0  0  0  0  0  0
   -4.7141    2.0642   -1.0779 C   0  0  0  0  0  0  0  0  0  0  0  0
   -3.8628    0.5407   -1.4414 S   0  0  0  0  0  0  0  0  0  0  0  0
   -2.8422    0.7815   -2.4365 O   0  0  0  0  0  0  0  0  0  0  0  0
   -4.8483   -0.5089   -1.5800 O   0  0  0  0  0  0  0  0  0  0  0  0
    1.3370    2.2928   -0.0484 N   0  0  0  0  0  0  0  0  0  0  0  0
    1.3203    3.2511   -1.4403 S   0  0  0  0  0  0  0  0  0  0  0  0
   -0.0418    3.6111   -1.7732 O   0  0  0  0  0  0  0  0  0  0  0  0
    2.3249    4.2720   -1.2255 O   0  0  0  0  0  0  0  0  0  0  0  0
    1.9383    2.1402   -2.6773 C   0  0  0  0  0  0  0  0  0  0  0  0
    3.3202    2.0482   -2.8715 C   0  0  0  0  0  0  0  0  0  0  0  0
    3.8380    1.1759   -3.8366 C   0  0  0  0  0  0  0  0  0  0  0  0
    2.9560    0.3863   -4.5977 C   0  0  0  0  0  0  0  0  0  0  0  0
    3.4623   -0.5382   -5.6787 C   0  0  0  0  0  0  0  0  0  0  0  0
    4.9479   -0.8701   -5.5385 C   0  0  0  0  0  0  0  0  0  0  0  0
    5.7537    0.4027   -5.3038 C   0  0  0  0  0  0  0  0  0  0  0  0
    5.3349    1.0589   -3.9895 C   0  0  0  0  0  0  0  0  0  0  0  0
    1.5701    0.5104   -4.4067 C   0  0  0  0  0  0  0  0  0  0  0  0
    1.0571    1.3881   -3.4525 C   0  0  0  0  0  0  0  0  0  0  0  0
    3.1358    0.3378    0.2158 H   0  0  0  0  0  0  0  0  0  0  0  0
    2.7314   -0.6421   -1.2128 H   0  0  0  0  0  0  0  0  0  0  0  0
    2.7645   -1.3669    0.4084 H   0  0  0  0  0  0  0  0  0  0  0  0
   -1.2719    2.3438    0.0827 H   0  0  0  0  0  0  0  0  0  0  0  0
   -1.9083   -1.9022    0.1318 H   0  0  0  0  0  0  0  0  0  0  0  0
    0.5205   -2.2697   -0.0173 H   0  0  0  0  0  0  0  0  0  0  0  0
   -3.1311    2.2481    1.2722 H   0  0  0  0  0  0  0  0  0  0  0  0
   -4.0374    0.9238    2.0220 H   0  0  0  0  0  0  0  0  0  0  0  0
   -5.4016    2.8702    0.8282 H   0  0  0  0  0  0  0  0  0  0  0  0
   -5.8753    1.1952    0.5157 H   0  0  0  0  0  0  0  0  0  0  0  0
   -4.0194    2.8921   -1.2475 H   0  0  0  0  0  0  0  0  0  0  0  0
   -5.5884    2.1634   -1.7235 H   0  0  0  0  0  0  0  0  0  0  0  0
    2.2483    2.2697    0.4030 H   0  0  0  0  0  0  0  0  0  0  0  0
    3.9993    2.6533   -2.2740 H   0  0  0  0  0  0  0  0  0  0  0  0
    3.2916   -0.0454   -6.6440 H   0  0  0  0  0  0  0  0  0  0  0  0
    2.8838   -1.4703   -5.6821 H   0  0  0  0  0  0  0  0  0  0  0  0
    5.1057   -1.5570   -4.6969 H   0  0  0  0  0  0  0  0  0  0  0  0
    5.2955   -1.3825   -6.4429 H   0  0  0  0  0  0  0  0  0  0  0  0
    5.5906    1.1015   -6.1338 H   0  0  0  0  0  0  0  0  0  0  0  0
    6.8260    0.1764   -5.2799 H   0  0  0  0  0  0  0  0  0  0  0  0
    5.7941    2.0527   -3.9276 H   0  0  0  0  0  0  0  0  0  0  0  0
    5.7151    0.4645   -3.1489 H   0  0  0  0  0  0  0  0  0  0  0  0
    0.8821   -0.0804   -5.0089 H   0  0  0  0  0  0  0  0  0  0  0  0
   -0.0200    1.4723   -3.3181 H   0  0  0  0  0  0  0  0  0  0  0  0
  1  2  1  0  0  0  0
  1 29  1  0  0  0  0
  1 30  1  0  0  0  0
  1 31  1  0  0  0  0
  2  3  2  0  0  0  0
  2  7  1  0  0  0  0
  3  4  1  0  0  0  0
  3 15  1  0  0  0  0
  4  5  2  0  0  0  0
  4 32  1  0  0  0  0
  5  6  1  0  0  0  0
  5  8  1  0  0  0  0
  6  7  2  0  0  0  0
  6 33  1  0  0  0  0
  7 34  1  0  0  0  0
  8  9  1  0  0  0  0
  8 12  1  0  0  0  0
  9 10  1  0  0  0  0
  9 35  1  0  0  0  0
  9 36  1  0  0  0  0
 10 11  1  0  0  0  0
 10 37  1  0  0  0  0
 10 38  1  0  0  0  0
 11 12  1  0  0  0  0
 11 39  1  0  0  0  0
 11 40  1  0  0  0  0
 12 13  2  0  0  0  0
 12 14  2  0  0  0  0
 15 16  1  0  0  0  0
 15 41  1  0  0  0  0
 16 17  2  0  0  0  0
 16 18  2  0  0  0  0
 16 19  1  0  0  0  0
 19 20  2  0  0  0  0
 19 28  1  0  0  0  0
 20 21  1  0  0  0  0
 20 42  1  0  0  0  0
 21 22  2  0  0  0  0
 21 26  1  0  0  0  0
 22 23  1  0  0  0  0
 22 27  1  0  0  0  0
 23 24  1  0  0  0  0
 23 43  1  0  0  0  0
 23 44  1  0  0  0  0
 24 25  1  0  0  0  0
 24 45  1  0  0  0  0
 24 46  1  0  0  0  0
 25 26  1  0  0  0  0
 25 47  1  0  0  0  0
 25 48  1  0  0  0  0
 26 49  1  0  0  0  0
 26 50  1  0  0  0  0
 27 28  2  0  0  0  0
 27 51  1  0  0  0  0
 28 52  1  0  0  0  0
M  END
