
 OpenBabel10072619523D

 32 32  0  0  0  0  0  0  0  0999 V2000
    0.9759    1.3601    1.8463 C   0  0  0  0  0  0  0  0  0  0  0  0
    2.1661    1.4526    0.9055 C   0  0  0  0  0  0  0  0  0  0  0  0
    3.0808    0.3030    1.1250 N   0  0  0  0  0  0  0  0  0  0  0  0
    2.6837   -0.9382    0.4031 C   0  0  0  0  0  0  0  0  0  0  0  0
    3.0939   -0.9561   -1.0602 C   0  0  0  0  0  0  0  0  0  0  0  0
    4.7501    0.6645    1.1149 S   0  0  0  0  0  0  0  0  0  0  0  0
    5.4867   -0.5683    1.2974 O   0  0  0  0  0  0  0  0  0  0  0  0
    4.9973    1.5339   -0.0172 O   0  0  0  0  0  0  0  0  0  0  0  0
    4.9595    1.6070    2.6058 C   0  0  0  0  0  0  0  0  0  0  0  0
    4.6424    1.0131    3.8304 C   0  0  0  0  0  0  0  0  0  0  0  0
    4.8527    1.7209    5.0151 C   0  0  0  0  0  0  0  0  0  0  0  0
    5.3787    3.0196    4.9806 C   0  0  0  0  0  0  0  0  0  0  0  0
    5.6895    3.6030    3.7433 C   0  0  0  0  0  0  0  0  0  0  0  0
    5.4790    2.9016    2.5542 C   0  0  0  0  0  0  0  0  0  0  0  0
    5.6626    3.7662    6.2520 C   0  0  0  0  0  0  0  0  0  0  0  0
    0.3162    2.2219    1.7019 H   0  0  0  0  0  0  0  0  0  0  0  0
    1.3025    1.3478    2.8915 H   0  0  0  0  0  0  0  0  0  0  0  0
    0.3889    0.4539    1.6679 H   0  0  0  0  0  0  0  0  0  0  0  0
    2.6763    2.4010    1.0989 H   0  0  0  0  0  0  0  0  0  0  0  0
    1.8264    1.4802   -0.1345 H   0  0  0  0  0  0  0  0  0  0  0  0
    1.5974   -1.0639    0.4694 H   0  0  0  0  0  0  0  0  0  0  0  0
    3.1133   -1.8013    0.9233 H   0  0  0  0  0  0  0  0  0  0  0  0
    2.7325   -0.0741   -1.5966 H   0  0  0  0  0  0  0  0  0  0  0  0
    2.6811   -1.8440   -1.5506 H   0  0  0  0  0  0  0  0  0  0  0  0
    4.1812   -0.9975   -1.1733 H   0  0  0  0  0  0  0  0  0  0  0  0
    4.2485   -0.0001    3.8661 H   0  0  0  0  0  0  0  0  0  0  0  0
    4.6192    1.2477    5.9668 H   0  0  0  0  0  0  0  0  0  0  0  0
    6.1146    4.6041    3.7017 H   0  0  0  0  0  0  0  0  0  0  0  0
    5.7380    3.3612    1.6034 H   0  0  0  0  0  0  0  0  0  0  0  0
    5.2210    3.2626    7.1182 H   0  0  0  0  0  0  0  0  0  0  0  0
    5.2408    4.7754    6.2056 H   0  0  0  0  0  0  0  0  0  0  0  0
    6.7436    3.8355    6.4122 H   0  0  0  0  0  0  0  0  0  0  0  0
  1  2  1  0  0  0  0
  1 16  1  0  0  0  0
  1 17  1  0  0  0  0
  1 18  1  0  0  0  0
  2  3  1  0  0  0  0
  2 19  1  0  0  0  0
  2 20  1  0  0  0  0
  3  4  1  0  0  0  0
  3  6  1  0  0  0  0
  4  5  1  0  0  0  0
  4 21  1  0  0  0  0
  4 22  1  0  0  0  0
  5 23  1  0  0  0  0
  5 24  1  0  0  0  0
  5 25  1  0  0  0  0
  6  7  2  0  0  0  0
  6  8  2  0  0  0  0
  6  9  1  0  0  0  0
  9 10  2  0  0  0  0
  9 14  1  0  0  0  0
 10 11  1  0  0  0  0
 10 26  1  0  0  0  0
 11 12  2  0  0  0  0
 11 27  1  0  0  0  0
 12 13  1  0  0  0  0
 12 15  1  0  0  0  0
 13 14  2  0  0  0  0
 13 28  1  0  0  0  0
 14 29  1  0  0  0  0
 15 30  1  0  0  0  0
 15 31  1  0  0  0  0
 15 32  1  0  0  0  0
M  END
