
 OpenBabel10072619553D

 60 63  0  0  0  0  0  0  0  0999 V2000
    1.9956   -2.6888   -0.6096 C   0  0  0  0  0  0  0  0  0  0  0  0
    3.4509   -2.3336   -0.3547 C   0  0  0  0  0  0  0  0  0  0  0  0
    3.5594   -0.6959    0.4232 S   0  0  0  0  0  0  0  0  0  0  0  0
    5.3097   -0.5670    0.6273 C   0  0  0  0  0  0  0  0  0  0  0  0
    6.1265   -0.0323   -0.3242 C   0  0  0  0  0  0  0  0  0  0  0  0
    5.5107    0.5677   -1.5379 C   0  0  0  0  0  0  0  0  0  0  0  0
    4.9843    1.8661   -1.4905 C   0  0  0  0  0  0  0  0  0  0  0  0
    4.4008    2.4404   -2.6183 C   0  0  0  0  0  0  0  0  0  0  0  0
    4.3145    1.7125   -3.8009 C   0  0  0  0  0  0  0  0  0  0  0  0
    4.8157    0.4139   -3.8555 C   0  0  0  0  0  0  0  0  0  0  0  0
    5.4074   -0.1583   -2.7285 C   0  0  0  0  0  0  0  0  0  0  0  0
    7.8954    0.1791   -0.2069 P   0  3  0  0  0  0  0  0  0  0  0  0
    8.5485    0.7077   -1.7894 C   0  0  0  0  0  0  0  0  0  0  0  0
    9.0418    1.9965   -2.0195 C   0  0  0  0  0  0  0  0  0  0  0  0
    9.5766    2.3594   -3.2596 C   0  0  0  0  0  0  0  0  0  0  0  0
    9.6533    1.4292   -4.2895 C   0  0  0  0  0  0  0  0  0  0  0  0
    9.2015    0.1325   -4.0783 C   0  0  0  0  0  0  0  0  0  0  0  0
    8.6644   -0.2228   -2.8389 C   0  0  0  0  0  0  0  0  0  0  0  0
    8.0582    1.4080    1.0873 C   0  0  0  0  0  0  0  0  0  0  0  0
    8.6245    1.1107    2.3343 C   0  0  0  0  0  0  0  0  0  0  0  0
    8.6973    2.0738    3.3473 C   0  0  0  0  0  0  0  0  0  0  0  0
    8.1945    3.3546    3.1376 C   0  0  0  0  0  0  0  0  0  0  0  0
    7.6258    3.6744    1.9117 C   0  0  0  0  0  0  0  0  0  0  0  0
    7.5588    2.7092    0.9047 C   0  0  0  0  0  0  0  0  0  0  0  0
    8.6795   -1.3845    0.1505 C   0  0  0  0  0  0  0  0  0  0  0  0
    8.0646   -2.6274   -0.0519 C   0  0  0  0  0  0  0  0  0  0  0  0
    8.7514   -3.8195    0.1923 C   0  0  0  0  0  0  0  0  0  0  0  0
   10.0772   -3.7885    0.6151 C   0  0  0  0  0  0  0  0  0  0  0  0
   10.7206   -2.5676    0.7815 C   0  0  0  0  0  0  0  0  0  0  0  0
   10.0288   -1.3801    0.5414 C   0  0  0  0  0  0  0  0  0  0  0  0
    5.9099   -1.1790    2.1563 S   0  0  0  0  0  0  0  0  0  0  0  0
    5.2600    0.0672    3.2928 C   0  0  0  0  0  0  0  0  0  0  0  0
    1.9245   -3.6739   -1.0823 H   0  0  0  0  0  0  0  0  0  0  0  0
    1.5084   -1.9705   -1.2778 H   0  0  0  0  0  0  0  0  0  0  0  0
    1.4289   -2.7351    0.3264 H   0  0  0  0  0  0  0  0  0  0  0  0
    4.0000   -2.3336   -1.3007 H   0  0  0  0  0  0  0  0  0  0  0  0
    3.9036   -3.0796    0.3046 H   0  0  0  0  0  0  0  0  0  0  0  0
    5.0024    2.4346   -0.5649 H   0  0  0  0  0  0  0  0  0  0  0  0
    4.0085    3.4521   -2.5711 H   0  0  0  0  0  0  0  0  0  0  0  0
    3.8546    2.1561   -4.6788 H   0  0  0  0  0  0  0  0  0  0  0  0
    4.7500   -0.1539   -4.7786 H   0  0  0  0  0  0  0  0  0  0  0  0
    5.7925   -1.1715   -2.7897 H   0  0  0  0  0  0  0  0  0  0  0  0
    9.0428    2.7441   -1.2356 H   0  0  0  0  0  0  0  0  0  0  0  0
    9.9412    3.3715   -3.4138 H   0  0  0  0  0  0  0  0  0  0  0  0
   10.0761    1.7106   -5.2493 H   0  0  0  0  0  0  0  0  0  0  0  0
    9.2690   -0.6050   -4.8727 H   0  0  0  0  0  0  0  0  0  0  0  0
    8.3340   -1.2482   -2.6953 H   0  0  0  0  0  0  0  0  0  0  0  0
    8.9795    0.1073    2.5550 H   0  0  0  0  0  0  0  0  0  0  0  0
    9.1286    1.8126    4.3099 H   0  0  0  0  0  0  0  0  0  0  0  0
    8.2317    4.0949    3.9323 H   0  0  0  0  0  0  0  0  0  0  0  0
    7.2212    4.6685    1.7383 H   0  0  0  0  0  0  0  0  0  0  0  0
    7.0996    2.9872   -0.0392 H   0  0  0  0  0  0  0  0  0  0  0  0
    7.0359   -2.6863   -0.3942 H   0  0  0  0  0  0  0  0  0  0  0  0
    8.2477   -4.7731    0.0578 H   0  0  0  0  0  0  0  0  0  0  0  0
   10.6069   -4.7146    0.8178 H   0  0  0  0  0  0  0  0  0  0  0  0
   11.7585   -2.5345    1.0999 H   0  0  0  0  0  0  0  0  0  0  0  0
   10.5529   -0.4338    0.6591 H   0  0  0  0  0  0  0  0  0  0  0  0
    5.4242    1.0756    2.9065 H   0  0  0  0  0  0  0  0  0  0  0  0
    5.7713   -0.0201    4.2557 H   0  0  0  0  0  0  0  0  0  0  0  0
    4.1908   -0.0853    3.4611 H   0  0  0  0  0  0  0  0  0  0  0  0
  1  2  1  0  0  0  0
  1 33  1  0  0  0  0
  1 34  1  0  0  0  0
  1 35  1  0  0  0  0
  2  3  1  0  0  0  0
  2 36  1  0  0  0  0
  2 37  1  0  0  0  0
  3  4  1  0  0  0  0
  4  5  2  0  0  0  0
  4 31  1  0  0  0  0
  5  6  1  0  0  0  0
  5 12  1  0  0  0  0
  6  7  2  0  0  0  0
  6 11  1  0  0  0  0
  7  8  1  0  0  0  0
  7 38  1  0  0  0  0
  8  9  2  0  0  0  0
  8 39  1  0  0  0  0
  9 10  1  0  0  0  0
  9 40  1  0  0  0  0
 10 11  2  0  0  0  0
 10 41  1  0  0  0  0
 11 42  1  0  0  0  0
 12 13  1  0  0  0  0
 12 19  1  0  0  0  0
 12 25  1  0  0  0  0
 13 14  2  0  0  0  0
 13 18  1  0  0  0  0
 14 15  1  0  0  0  0
 14 43  1  0  0  0  0
 15 16  2  0  0  0  0
 15 44  1  0  0  0  0
 16 17  1  0  0  0  0
 16 45  1  0  0  0  0
 17 18  2  0  0  0  0
 17 46  1  0  0  0  0
 18 47  1  0  0  0  0
 19 20  2  0  0  0  0
 19 24  1  0  0  0  0
 20 21  1  0  0  0  0
 20 48  1  0  0  0  0
 21 22  2  0  0  0  0
 21 49  1  0  0  0  0
 22 23  1  0  0  0  0
 22 50  1  0  0  0  0
 23 24  2  0  0  0  0
 23 51  1  0  0  0  0
 24 52  1  0  0  0  0
 25 26  2  0  0  0  0
 25 30  1  0  0  0  0
 26 27  1  0  0  0  0
 26 53  1  0  0  0  0
 27 28  2  0  0  0  0
 27 54  1  0  0  0  0
 28 29  1  0  0  0  0
 28 55  1  0  0  0  0
 29 30  2  0  0  0  0
 29 56  1  0  0  0  0
 30 57  1  0  0  0  0
 31 32  1  0  0  0  0
 32 58  1  0  0  0  0
 32 59  1  0  0  0  0
 32 60  1  0  0  0  0
M  CHG  1  12   1
M  END
