
 OpenBabel10072620103D

 66 66  0  0  1  0  0  0  0  0999 V2000
    0.3807    3.9445   -8.8458 C   0  0  0  0  0  0  0  0  0  0  0  0
    1.8876    3.7477   -8.8949 C   0  0  0  0  0  0  0  0  0  0  0  0
    2.5268    3.9883   -7.5271 C   0  0  0  0  0  0  0  0  0  0  0  0
    4.0421    3.7918   -7.5811 C   0  0  0  0  0  0  0  0  0  0  0  0
    4.6898    4.0441   -6.2184 C   0  0  0  0  0  0  0  0  0  0  0  0
    6.2053    3.8552   -6.2868 C   0  0  0  0  0  0  0  0  0  0  0  0
    6.8722    4.1467   -4.9408 C   0  0  0  0  0  0  0  0  0  0  0  0
    8.3878    3.9626   -5.0369 C   0  0  0  0  0  0  0  0  0  0  0  0
    9.0892    4.3045   -3.7196 C   0  0  0  0  0  0  0  0  0  0  0  0
   10.6045    4.0830   -3.7744 C   0  0  0  0  0  0  0  0  0  0  0  0
   11.3109    5.0423   -4.7264 C   0  0  0  0  0  0  0  0  0  0  0  0
   12.7839    4.7464   -4.8214 C   0  0  0  0  0  0  0  0  0  0  0  0
   13.8034    5.5628   -4.2757 N   0  0  0  0  0  0  0  0  0  0  0  0
   15.5384    5.0206   -4.6522 C   0  0  0  0  0  0  0  0  0  0  0  0
   15.3449    3.2911   -5.5598 C   0  0  0  0  0  0  0  0  0  0  0  0
   13.3426    3.2785   -5.6573 N   0  3  0  0  0  0  0  0  0  0  0  0
   14.1669    4.2542   -5.8488 C   0  0  0  0  0  0  0  0  0  0  0  0
   14.1590    3.3718   -3.9445 C   0  0  0  0  0  0  0  0  0  0  0  0
   14.0076    1.8871   -3.9166 O   0  0  0  0  0  0  0  0  0  0  0  0
   12.5373    2.6925   -6.7491 C   0  0  0  0  0  0  0  0  0  0  0  0
   13.1190    1.3286   -7.1876 C   0  0  3  0  0  0  0  0  0  0  0  0
   12.2794    0.6392   -8.2623 C   0  0  0  0  0  0  0  0  0  0  0  0
   10.6827    0.1666   -7.6350 S   0  0  0  0  0  0  0  0  0  0  0  0
   10.8611   -0.7692   -6.5525 O   0  0  0  0  0  0  0  0  0  0  0  0
    9.8728    1.3557   -7.5123 O   0  0  0  0  0  0  0  0  0  0  0  0
   10.1653   -0.6777   -8.9053 O   0  0  0  0  0  0  0  0  0  0  0  0
   14.4434    1.5387   -7.7220 O   0  0  0  0  0  0  0  0  0  0  0  0
   -0.0581    3.7671   -9.8328 H   0  0  0  0  0  0  0  0  0  0  0  0
    0.1287    4.9651   -8.5400 H   0  0  0  0  0  0  0  0  0  0  0  0
   -0.0819    3.2492   -8.1380 H   0  0  0  0  0  0  0  0  0  0  0  0
    2.3161    4.4355   -9.6335 H   0  0  0  0  0  0  0  0  0  0  0  0
    2.1065    2.7289   -9.2353 H   0  0  0  0  0  0  0  0  0  0  0  0
    2.0916    3.3006   -6.7917 H   0  0  0  0  0  0  0  0  0  0  0  0
    2.2992    5.0072   -7.1909 H   0  0  0  0  0  0  0  0  0  0  0  0
    4.4723    4.4755   -8.3230 H   0  0  0  0  0  0  0  0  0  0  0  0
    4.2685    2.7712   -7.9128 H   0  0  0  0  0  0  0  0  0  0  0  0
    4.2672    3.3573   -5.4752 H   0  0  0  0  0  0  0  0  0  0  0  0
    4.4607    5.0637   -5.8857 H   0  0  0  0  0  0  0  0  0  0  0  0
    6.6231    4.5209   -7.0523 H   0  0  0  0  0  0  0  0  0  0  0  0
    6.4343    2.8276   -6.5949 H   0  0  0  0  0  0  0  0  0  0  0  0
    6.4654    3.4793   -4.1719 H   0  0  0  0  0  0  0  0  0  0  0  0
    6.6450    5.1746   -4.6333 H   0  0  0  0  0  0  0  0  0  0  0  0
    8.7658    4.6015   -5.8419 H   0  0  0  0  0  0  0  0  0  0  0  0
    8.6132    2.9258   -5.3139 H   0  0  0  0  0  0  0  0  0  0  0  0
    8.6755    3.6771   -2.9203 H   0  0  0  0  0  0  0  0  0  0  0  0
    8.8811    5.3459   -3.4458 H   0  0  0  0  0  0  0  0  0  0  0  0
   10.8133    3.0433   -4.0526 H   0  0  0  0  0  0  0  0  0  0  0  0
   11.0146    4.2156   -2.7649 H   0  0  0  0  0  0  0  0  0  0  0  0
   11.1785    6.0771   -4.3927 H   0  0  0  0  0  0  0  0  0  0  0  0
   10.9126    4.9634   -5.7411 H   0  0  0  0  0  0  0  0  0  0  0  0
   16.0870    5.0029   -3.7044 H   0  0  0  0  0  0  0  0  0  0  0  0
   15.9018    5.7775   -5.3610 H   0  0  0  0  0  0  0  0  0  0  0  0
   15.7178    2.4105   -5.0071 H   0  0  0  0  0  0  0  0  0  0  0  0
   15.8595    3.2753   -6.5580 H   0  0  0  0  0  0  0  0  0  0  0  0
   13.8429    5.2963   -6.2216 H   0  0  0  0  0  0  0  0  0  0  0  0
   14.3715    3.9867   -6.9427 H   0  0  0  0  0  0  0  0  0  0  0  0
   13.3477    3.6561   -3.2411 H   0  0  0  0  0  0  0  0  0  0  0  0
   15.0647    3.4965   -3.3250 H   0  0  0  0  0  0  0  0  0  0  0  0
   13.8417    1.6364   -2.9875 H   0  0  0  0  0  0  0  0  0  0  0  0
   12.4816    3.4011   -7.5848 H   0  0  0  0  0  0  0  0  0  0  0  0
   11.5413    2.5756   -6.3246 H   0  0  0  0  0  0  0  0  0  0  0  0
   13.2254    0.6761   -6.3141 H   0  0  0  0  0  0  0  0  0  0  0  0
   12.7812   -0.2707   -8.6109 H   0  0  0  0  0  0  0  0  0  0  0  0
   12.1301    1.2903   -9.1300 H   0  0  0  0  0  0  0  0  0  0  0  0
    9.7519   -1.5134   -8.5904 H   0  0  0  0  0  0  0  0  0  0  0  0
   14.8320    0.6590   -7.8996 H   0  0  0  0  0  0  0  0  0  0  0  0
  1  2  1  0  0  0  0
  1 28  1  0  0  0  0
  1 29  1  0  0  0  0
  1 30  1  0  0  0  0
  2  3  1  0  0  0  0
  2 31  1  0  0  0  0
  2 32  1  0  0  0  0
  3  4  1  0  0  0  0
  3 33  1  0  0  0  0
  3 34  1  0  0  0  0
  4  5  1  0  0  0  0
  4 35  1  0  0  0  0
  4 36  1  0  0  0  0
  5  6  1  0  0  0  0
  5 37  1  0  0  0  0
  5 38  1  0  0  0  0
  6  7  1  0  0  0  0
  6 39  1  0  0  0  0
  6 40  1  0  0  0  0
  7  8  1  0  0  0  0
  7 41  1  0  0  0  0
  7 42  1  0  0  0  0
  8  9  1  0  0  0  0
  8 43  1  0  0  0  0
  8 44  1  0  0  0  0
  9 10  1  0  0  0  0
  9 45  1  0  0  0  0
  9 46  1  0  0  0  0
 10 11  1  0  0  0  0
 10 47  1  0  0  0  0
 10 48  1  0  0  0  0
 11 12  1  0  0  0  0
 11 49  1  0  0  0  0
 11 50  1  0  0  0  0
 12 13  2  0  0  0  0
 12 16  1  0  0  0  0
 13 14  1  0  0  0  0
 14 15  1  0  0  0  0
 14 51  1  0  0  0  0
 14 52  1  0  0  0  0
 15 16  1  0  0  0  0
 15 53  1  0  0  0  0
 15 54  1  0  0  0  0
 16 17  1  0  0  0  0
 16 20  1  0  0  0  0
 17 18  1  0  0  0  0
 17 55  1  0  0  0  0
 17 56  1  0  0  0  0
 18 19  1  0  0  0  0
 18 57  1  0  0  0  0
 18 58  1  0  0  0  0
 19 59  1  0  0  0  0
 20 21  1  0  0  0  0
 20 60  1  0  0  0  0
 20 61  1  0  0  0  0
 21 22  1  0  0  0  0
 21 27  1  0  0  0  0
 21 62  1  0  0  0  0
 22 23  1  0  0  0  0
 22 63  1  0  0  0  0
 22 64  1  0  0  0  0
 23 24  2  0  0  0  0
 23 25  2  0  0  0  0
 23 26  1  0  0  0  0
 26 65  1  0  0  0  0
 27 66  1  0  0  0  0
M  CHG  1  16   1
M  END
