
 OpenBabel10072616343D

 64 66  0  0  0  0  0  0  0  0999 V2000
    2.3859    0.5480   -0.8270 C   0  0  0  0  0  0  0  0  0  0  0  0
    1.4682    0.1788    0.3065 C   0  0  0  0  0  0  0  0  0  0  0  0
    1.7741   -0.9933    1.0345 C   0  0  0  0  0  0  0  0  0  0  0  0
    0.9754   -1.4534    2.0967 C   0  0  0  0  0  0  0  0  0  0  0  0
   -0.1637   -0.6958    2.4057 C   0  0  0  0  0  0  0  0  0  0  0  0
   -0.4666    0.5100    1.7445 C   0  0  0  0  0  0  0  0  0  0  0  0
    0.3535    0.9484    0.6838 C   0  0  0  0  0  0  0  0  0  0  0  0
   -0.0602    2.4721   -0.1777 S   0  0  0  0  0  0  0  0  0  0  0  0
    1.0717    3.5937    0.6949 C   0  0  0  0  0  0  0  0  0  0  0  0
    0.7018    5.0318    0.3458 C   0  0  0  0  0  0  0  0  0  0  0  0
    1.1912    6.0138    1.3833 C   0  0  0  0  0  0  0  0  0  0  0  0
    2.3882    6.7099    1.1345 C   0  0  0  0  0  0  0  0  0  0  0  0
    2.8319    7.6918    2.0077 C   0  0  0  0  0  0  0  0  0  0  0  0
    2.0797    7.9797    3.1327 C   0  0  0  0  0  0  0  0  0  0  0  0
    0.9105    7.2714    3.3660 C   0  0  0  0  0  0  0  0  0  0  0  0
    0.4867    6.2886    2.5268 N   0  3  0  0  0  0  0  0  0  0  0  0
   -0.7039    5.4910    2.9687 C   0  0  0  0  0  0  0  0  0  0  0  0
   -0.2691    4.6008    4.1218 C   0  0  0  0  0  0  0  0  0  0  0  0
    0.9139    4.2965    4.2776 O   0  0  0  0  0  0  0  0  0  0  0  0
   -1.2767    4.1312    5.1165 C   0  0  0  0  0  0  0  0  0  0  0  0
   -2.6571    4.1783    4.8773 C   0  0  0  0  0  0  0  0  0  0  0  0
   -3.5526    3.7638    5.8729 C   0  0  0  0  0  0  0  0  0  0  0  0
   -3.0687    3.2848    7.1007 C   0  0  0  0  0  0  0  0  0  0  0  0
   -1.6926    3.2353    7.3473 C   0  0  0  0  0  0  0  0  0  0  0  0
   -0.8035    3.6465    6.3499 C   0  0  0  0  0  0  0  0  0  0  0  0
   -4.0137    2.8012    8.1200 N   0  3  0  0  0  0  0  0  0  0  0  0
   -5.2197    2.8683    7.8521 O   0  0  0  0  0  0  0  0  0  0  0  0
   -3.5421    2.3582    9.1741 O   0  5  0  0  0  0  0  0  0  0  0  0
   -1.6767    1.2783    2.2033 C   0  0  0  0  0  0  0  0  0  0  0  0
    1.3014   -2.7471    2.8776 C   0  0  0  0  0  0  0  0  0  0  0  0
    2.8030   -3.1190    2.8128 C   0  0  0  0  0  0  0  0  0  0  0  0
    0.9354   -2.6330    4.3790 C   0  0  0  0  0  0  0  0  0  0  0  0
    0.4769   -3.9039    2.2799 C   0  0  0  0  0  0  0  0  0  0  0  0
    2.7264   -0.3508   -1.3467 H   0  0  0  0  0  0  0  0  0  0  0  0
    3.2579    1.0857   -0.4495 H   0  0  0  0  0  0  0  0  0  0  0  0
    1.8957    1.1616   -1.5842 H   0  0  0  0  0  0  0  0  0  0  0  0
    2.6540   -1.5565    0.7275 H   0  0  0  0  0  0  0  0  0  0  0  0
   -0.8448   -1.0458    3.1776 H   0  0  0  0  0  0  0  0  0  0  0  0
    2.1058    3.3841    0.4056 H   0  0  0  0  0  0  0  0  0  0  0  0
    0.9878    3.4055    1.7678 H   0  0  0  0  0  0  0  0  0  0  0  0
   -0.3779    5.1770    0.2265 H   0  0  0  0  0  0  0  0  0  0  0  0
    1.1243    5.2905   -0.6364 H   0  0  0  0  0  0  0  0  0  0  0  0
    2.9775    6.4928    0.2424 H   0  0  0  0  0  0  0  0  0  0  0  0
    3.7565    8.2319    1.8086 H   0  0  0  0  0  0  0  0  0  0  0  0
    2.4065    8.7487    3.8295 H   0  0  0  0  0  0  0  0  0  0  0  0
    0.3089    7.4717    4.2500 H   0  0  0  0  0  0  0  0  0  0  0  0
   -1.0896    4.8802    2.1538 H   0  0  0  0  0  0  0  0  0  0  0  0
   -1.4662    6.2156    3.2744 H   0  0  0  0  0  0  0  0  0  0  0  0
   -3.0761    4.5070    3.9296 H   0  0  0  0  0  0  0  0  0  0  0  0
   -4.6258    3.8113    5.6806 H   0  0  0  0  0  0  0  0  0  0  0  0
   -1.2993    2.8792    8.3003 H   0  0  0  0  0  0  0  0  0  0  0  0
    0.2675    3.5819    6.5495 H   0  0  0  0  0  0  0  0  0  0  0  0
   -2.1589    0.8055    3.0657 H   0  0  0  0  0  0  0  0  0  0  0  0
   -2.4134    1.3325    1.3977 H   0  0  0  0  0  0  0  0  0  0  0  0
   -1.3895    2.2872    2.5154 H   0  0  0  0  0  0  0  0  0  0  0  0
    3.4364   -2.2851    3.1419 H   0  0  0  0  0  0  0  0  0  0  0  0
    3.1108   -3.4003    1.7989 H   0  0  0  0  0  0  0  0  0  0  0  0
    3.0279   -3.9792    3.4557 H   0  0  0  0  0  0  0  0  0  0  0  0
    1.3929   -1.7508    4.8406 H   0  0  0  0  0  0  0  0  0  0  0  0
    1.2713   -3.5160    4.9362 H   0  0  0  0  0  0  0  0  0  0  0  0
   -0.1472   -2.5719    4.5354 H   0  0  0  0  0  0  0  0  0  0  0  0
    0.7029   -4.0480    1.2171 H   0  0  0  0  0  0  0  0  0  0  0  0
   -0.5997   -3.7108    2.3679 H   0  0  0  0  0  0  0  0  0  0  0  0
    0.6860   -4.8459    2.8014 H   0  0  0  0  0  0  0  0  0  0  0  0
  1  2  1  0  0  0  0
  1 34  1  0  0  0  0
  1 35  1  0  0  0  0
  1 36  1  0  0  0  0
  2  3  2  0  0  0  0
  2  7  1  0  0  0  0
  3  4  1  0  0  0  0
  3 37  1  0  0  0  0
  4  5  2  0  0  0  0
  4 30  1  0  0  0  0
  5  6  1  0  0  0  0
  5 38  1  0  0  0  0
  6  7  2  0  0  0  0
  6 29  1  0  0  0  0
  7  8  1  0  0  0  0
  8  9  1  0  0  0  0
  9 10  1  0  0  0  0
  9 39  1  0  0  0  0
  9 40  1  0  0  0  0
 10 11  1  0  0  0  0
 10 41  1  0  0  0  0
 10 42  1  0  0  0  0
 11 12  2  0  0  0  0
 11 16  1  0  0  0  0
 12 13  1  0  0  0  0
 12 43  1  0  0  0  0
 13 14  2  0  0  0  0
 13 44  1  0  0  0  0
 14 15  1  0  0  0  0
 14 45  1  0  0  0  0
 15 16  2  0  0  0  0
 15 46  1  0  0  0  0
 16 17  1  0  0  0  0
 17 18  1  0  0  0  0
 17 47  1  0  0  0  0
 17 48  1  0  0  0  0
 18 19  2  0  0  0  0
 18 20  1  0  0  0  0
 20 21  2  0  0  0  0
 20 25  1  0  0  0  0
 21 22  1  0  0  0  0
 21 49  1  0  0  0  0
 22 23  2  0  0  0  0
 22 50  1  0  0  0  0
 23 24  1  0  0  0  0
 23 26  1  0  0  0  0
 24 25  2  0  0  0  0
 24 51  1  0  0  0  0
 25 52  1  0  0  0  0
 26 27  2  0  0  0  0
 26 28  1  0  0  0  0
 29 53  1  0  0  0  0
 29 54  1  0  0  0  0
 29 55  1  0  0  0  0
 30 31  1  0  0  0  0
 30 32  1  0  0  0  0
 30 33  1  0  0  0  0
 31 56  1  0  0  0  0
 31 57  1  0  0  0  0
 31 58  1  0  0  0  0
 32 59  1  0  0  0  0
 32 60  1  0  0  0  0
 32 61  1  0  0  0  0
 33 62  1  0  0  0  0
 33 63  1  0  0  0  0
 33 64  1  0  0  0  0
M  CHG  3  16   1  26   1  28  -1
M  END
