
 OpenBabel10072620063D

 72 71  0  0  0  0  0  0  0  0999 V2000
   -7.2929    0.4880    3.8003 C   0  0  0  0  0  0  0  0  0  0  0  0
   -8.0150    0.2345    2.4641 C   0  0  0  0  0  0  0  0  0  0  0  0
   -7.3751   -0.8565    1.7181 N   0  0  0  0  0  0  0  0  0  0  0  0
   -8.0412   -1.0600    0.4251 C   0  0  0  0  0  0  0  0  0  0  0  0
   -7.3548   -2.1804   -0.3875 C   0  0  0  0  0  0  0  0  0  0  0  0
   -8.0259   -2.5077   -1.6542 N   0  0  0  0  0  0  0  0  0  0  0  0
   -7.7962   -1.4860   -2.6830 C   0  0  0  0  0  0  0  0  0  0  0  0
   -8.5542   -1.8195   -3.9876 C   0  0  0  0  0  0  0  0  0  0  0  0
   -8.3327   -0.7603   -4.9798 N   0  0  0  0  0  0  0  0  0  0  0  0
   -9.1342   -0.9804   -6.1923 C   0  0  0  0  0  0  0  0  0  0  0  0
   -8.8944    0.1527   -7.2046 C   0  0  0  0  0  0  0  0  0  0  0  0
   -9.5515   -0.0627   -8.4827 N   0  0  0  0  0  0  0  0  0  0  0  0
  -10.9076    0.1277   -8.6015 C   0  0  0  0  0  0  0  0  0  0  0  0
  -11.6651    0.3369   -7.6652 O   0  0  0  0  0  0  0  0  0  0  0  0
  -11.2817    0.1074   -9.9197 N   0  0  0  0  0  0  0  0  0  0  0  0
  -12.6608    0.3257  -10.3176 C   0  0  0  0  0  0  0  0  0  0  0  0
  -13.3859   -0.9682  -10.7288 C   0  0  0  0  0  0  0  0  0  0  0  0
  -13.2558   -2.0400   -9.7362 N   0  0  0  0  0  0  0  0  0  0  0  0
  -14.1041   -3.1844  -10.0814 C   0  0  0  0  0  0  0  0  0  0  0  0
  -14.0413   -4.2788   -8.9979 C   0  0  0  0  0  0  0  0  0  0  0  0
  -14.7984   -5.4655   -9.4203 N   0  0  0  0  0  0  0  0  0  0  0  0
  -14.8307   -6.4711   -8.3501 C   0  0  0  0  0  0  0  0  0  0  0  0
  -15.5396   -7.7553   -8.8263 C   0  0  0  0  0  0  0  0  0  0  0  0
  -15.6060   -8.7500   -7.7482 N   0  0  0  0  0  0  0  0  0  0  0  0
  -16.2726   -9.9763   -8.2191 C   0  0  0  0  0  0  0  0  0  0  0  0
  -16.3640  -11.0338   -7.1000 C   0  0  0  0  0  0  0  0  0  0  0  0
  -16.8173  -10.4636   -5.8245 N   0  0  0  0  0  0  0  0  0  0  0  0
   -7.9214    1.5773    4.5488 N   0  0  0  0  0  0  0  0  0  0  0  0
   -6.2418    0.7406    3.6186 H   0  0  0  0  0  0  0  0  0  0  0  0
   -7.3154   -0.4185    4.4157 H   0  0  0  0  0  0  0  0  0  0  0  0
   -7.9886    1.1543    1.8666 H   0  0  0  0  0  0  0  0  0  0  0  0
   -9.0660   -0.0118    2.6598 H   0  0  0  0  0  0  0  0  0  0  0  0
   -7.4373   -1.7155    2.2658 H   0  0  0  0  0  0  0  0  0  0  0  0
   -8.0142   -0.1262   -0.1465 H   0  0  0  0  0  0  0  0  0  0  0  0
   -9.0925   -1.3248    0.5888 H   0  0  0  0  0  0  0  0  0  0  0  0
   -7.3524   -3.0960    0.2166 H   0  0  0  0  0  0  0  0  0  0  0  0
   -6.3019   -1.9309   -0.5673 H   0  0  0  0  0  0  0  0  0  0  0  0
   -9.0278   -2.6051   -1.4896 H   0  0  0  0  0  0  0  0  0  0  0  0
   -6.7221   -1.4196   -2.8980 H   0  0  0  0  0  0  0  0  0  0  0  0
   -8.1300   -0.5032   -2.3296 H   0  0  0  0  0  0  0  0  0  0  0  0
   -9.6250   -1.9059   -3.7650 H   0  0  0  0  0  0  0  0  0  0  0  0
   -8.2113   -2.7844   -4.3829 H   0  0  0  0  0  0  0  0  0  0  0  0
   -7.3436   -0.7389   -5.2265 H   0  0  0  0  0  0  0  0  0  0  0  0
  -10.1996   -1.0258   -5.9381 H   0  0  0  0  0  0  0  0  0  0  0  0
   -8.8625   -1.9376   -6.6524 H   0  0  0  0  0  0  0  0  0  0  0  0
   -7.8236    0.2387   -7.4231 H   0  0  0  0  0  0  0  0  0  0  0  0
   -9.2292    1.1136   -6.7984 H   0  0  0  0  0  0  0  0  0  0  0  0
   -9.0324    0.2130   -9.3013 H   0  0  0  0  0  0  0  0  0  0  0  0
  -10.7441   -0.5235  -10.5017 H   0  0  0  0  0  0  0  0  0  0  0  0
  -12.6347    1.0090  -11.1731 H   0  0  0  0  0  0  0  0  0  0  0  0
  -13.2089    0.8230   -9.5087 H   0  0  0  0  0  0  0  0  0  0  0  0
  -12.9605   -1.3173  -11.6776 H   0  0  0  0  0  0  0  0  0  0  0  0
  -14.4407   -0.7235  -10.9032 H   0  0  0  0  0  0  0  0  0  0  0  0
  -13.4972   -1.6787   -8.8102 H   0  0  0  0  0  0  0  0  0  0  0  0
  -13.7711   -3.6027  -11.0393 H   0  0  0  0  0  0  0  0  0  0  0  0
  -15.1464   -2.8623  -10.1998 H   0  0  0  0  0  0  0  0  0  0  0  0
  -14.4578   -3.8788   -8.0652 H   0  0  0  0  0  0  0  0  0  0  0  0
  -12.9959   -4.5545   -8.8122 H   0  0  0  0  0  0  0  0  0  0  0  0
  -14.3414   -5.8685  -10.2391 H   0  0  0  0  0  0  0  0  0  0  0  0
  -15.3642   -6.0642   -7.4822 H   0  0  0  0  0  0  0  0  0  0  0  0
  -13.8096   -6.7197   -8.0351 H   0  0  0  0  0  0  0  0  0  0  0  0
  -14.9868   -8.1725   -9.6774 H   0  0  0  0  0  0  0  0  0  0  0  0
  -16.5519   -7.5078   -9.1697 H   0  0  0  0  0  0  0  0  0  0  0  0
  -16.1869   -8.3723   -6.9952 H   0  0  0  0  0  0  0  0  0  0  0  0
  -15.7258  -10.4078   -9.0661 H   0  0  0  0  0  0  0  0  0  0  0  0
  -17.2880   -9.7338   -8.5583 H   0  0  0  0  0  0  0  0  0  0  0  0
  -15.3778  -11.4888   -6.9470 H   0  0  0  0  0  0  0  0  0  0  0  0
  -17.0504  -11.8296   -7.4087 H   0  0  0  0  0  0  0  0  0  0  0  0
  -16.0887   -9.8204   -5.5088 H   0  0  0  0  0  0  0  0  0  0  0  0
  -16.8437  -11.2063   -5.1268 H   0  0  0  0  0  0  0  0  0  0  0  0
   -7.8458    2.4402    4.0105 H   0  0  0  0  0  0  0  0  0  0  0  0
   -7.3962    1.7366    5.4079 H   0  0  0  0  0  0  0  0  0  0  0  0
  1  2  1  0  0  0  0
  1 28  1  0  0  0  0
  1 29  1  0  0  0  0
  1 30  1  0  0  0  0
  2  3  1  0  0  0  0
  2 31  1  0  0  0  0
  2 32  1  0  0  0  0
  3  4  1  0  0  0  0
  3 33  1  0  0  0  0
  4  5  1  0  0  0  0
  4 34  1  0  0  0  0
  4 35  1  0  0  0  0
  5  6  1  0  0  0  0
  5 36  1  0  0  0  0
  5 37  1  0  0  0  0
  6  7  1  0  0  0  0
  6 38  1  0  0  0  0
  7  8  1  0  0  0  0
  7 39  1  0  0  0  0
  7 40  1  0  0  0  0
  8  9  1  0  0  0  0
  8 41  1  0  0  0  0
  8 42  1  0  0  0  0
  9 10  1  0  0  0  0
  9 43  1  0  0  0  0
 10 11  1  0  0  0  0
 10 44  1  0  0  0  0
 10 45  1  0  0  0  0
 11 12  1  0  0  0  0
 11 46  1  0  0  0  0
 11 47  1  0  0  0  0
 12 13  1  0  0  0  0
 12 48  1  0  0  0  0
 13 14  2  0  0  0  0
 13 15  1  0  0  0  0
 15 16  1  0  0  0  0
 15 49  1  0  0  0  0
 16 17  1  0  0  0  0
 16 50  1  0  0  0  0
 16 51  1  0  0  0  0
 17 18  1  0  0  0  0
 17 52  1  0  0  0  0
 17 53  1  0  0  0  0
 18 19  1  0  0  0  0
 18 54  1  0  0  0  0
 19 20  1  0  0  0  0
 19 55  1  0  0  0  0
 19 56  1  0  0  0  0
 20 21  1  0  0  0  0
 20 57  1  0  0  0  0
 20 58  1  0  0  0  0
 21 22  1  0  0  0  0
 21 59  1  0  0  0  0
 22 23  1  0  0  0  0
 22 60  1  0  0  0  0
 22 61  1  0  0  0  0
 23 24  1  0  0  0  0
 23 62  1  0  0  0  0
 23 63  1  0  0  0  0
 24 25  1  0  0  0  0
 24 64  1  0  0  0  0
 25 26  1  0  0  0  0
 25 65  1  0  0  0  0
 25 66  1  0  0  0  0
 26 27  1  0  0  0  0
 26 67  1  0  0  0  0
 26 68  1  0  0  0  0
 27 69  1  0  0  0  0
 27 70  1  0  0  0  0
 28 71  1  0  0  0  0
 28 72  1  0  0  0  0
M  END
