
 OpenBabel10072620103D

 27 26  0  0  0  0  0  0  0  0999 V2000
    0.9541   -0.1458    0.3175 C   0  0  0  0  0  0  0  0  0  0  0  0
    2.4682   -0.0822    0.1713 C   0  0  0  0  0  0  0  0  0  0  0  0
    2.9580    1.0695   -0.7326 C   0  0  0  0  0  0  0  0  0  0  0  0
    2.4933    2.4686   -0.2802 C   0  0  0  0  0  0  0  0  0  0  0  0
    2.9183    2.8725    1.1249 C   0  0  0  0  0  0  0  0  0  0  0  0
    4.4914    1.0215   -0.8845 C   0  0  0  0  0  0  0  0  0  0  0  0
    4.9161   -0.2212   -1.4699 O   0  0  0  0  0  0  0  0  0  0  0  0
    4.8954   -0.2663   -2.8249 C   0  0  0  0  0  0  0  0  0  0  0  0
    4.5569    0.6266   -3.5827 O   0  0  0  0  0  0  0  0  0  0  0  0
    5.3517   -1.6107   -3.2379 C   0  0  0  0  0  0  0  0  0  0  0  0
    5.4080   -1.9482   -4.5323 C   0  0  0  0  0  0  0  0  0  0  0  0
    0.6697   -1.0437    0.8757 H   0  0  0  0  0  0  0  0  0  0  0  0
    0.4658   -0.1876   -0.6612 H   0  0  0  0  0  0  0  0  0  0  0  0
    0.5651    0.7180    0.8643 H   0  0  0  0  0  0  0  0  0  0  0  0
    2.8018   -1.0381   -0.2510 H   0  0  0  0  0  0  0  0  0  0  0  0
    2.9245   -0.0095    1.1653 H   0  0  0  0  0  0  0  0  0  0  0  0
    2.5211    0.8953   -1.7255 H   0  0  0  0  0  0  0  0  0  0  0  0
    1.4009    2.5317   -0.3481 H   0  0  0  0  0  0  0  0  0  0  0  0
    2.8778    3.2149   -0.9869 H   0  0  0  0  0  0  0  0  0  0  0  0
    2.4941    2.2061    1.8811 H   0  0  0  0  0  0  0  0  0  0  0  0
    2.5632    3.8852    1.3428 H   0  0  0  0  0  0  0  0  0  0  0  0
    4.0065    2.8741    1.2332 H   0  0  0  0  0  0  0  0  0  0  0  0
    4.9777    1.0826    0.0953 H   0  0  0  0  0  0  0  0  0  0  0  0
    4.8641    1.8679   -1.4747 H   0  0  0  0  0  0  0  0  0  0  0  0
    5.6358   -2.3058   -2.4574 H   0  0  0  0  0  0  0  0  0  0  0  0
    5.1215   -1.2505   -5.3150 H   0  0  0  0  0  0  0  0  0  0  0  0
    5.7424   -2.9344   -4.8355 H   0  0  0  0  0  0  0  0  0  0  0  0
  1  2  1  0  0  0  0
  1 12  1  0  0  0  0
  1 13  1  0  0  0  0
  1 14  1  0  0  0  0
  2  3  1  0  0  0  0
  2 15  1  0  0  0  0
  2 16  1  0  0  0  0
  3  4  1  0  0  0  0
  3  6  1  0  0  0  0
  3 17  1  0  0  0  0
  4  5  1  0  0  0  0
  4 18  1  0  0  0  0
  4 19  1  0  0  0  0
  5 20  1  0  0  0  0
  5 21  1  0  0  0  0
  5 22  1  0  0  0  0
  6  7  1  0  0  0  0
  6 23  1  0  0  0  0
  6 24  1  0  0  0  0
  7  8  1  0  0  0  0
  8  9  2  0  0  0  0
  8 10  1  0  0  0  0
 10 11  2  0  0  0  0
 10 25  1  0  0  0  0
 11 26  1  0  0  0  0
 11 27  1  0  0  0  0
M  END
