
 OpenBabel10072619473D

 79 81  0  0  1  0  0  0  0  0999 V2000
    1.0593    1.5503   -0.6252 C   0  0  0  0  0  0  0  0  0  0  0  0
    2.4250    0.8907   -0.5212 C   0  0  3  0  0  0  0  0  0  0  0  0
    2.4908   -0.6367   -0.4143 C   0  0  3  0  0  0  0  0  0  0  0  0
    3.5730   -0.8825    0.6560 C   0  0  3  0  0  0  0  0  0  0  0  0
    4.1771    0.5211    0.9162 C   0  0  3  0  0  0  0  0  0  0  0  0
    3.0903    1.4068    0.6505 O   0  0  0  0  0  0  0  0  0  0  0  0
    5.2747    0.8516    0.0783 O   0  0  0  0  0  0  0  0  0  0  0  0
    6.0148    2.0828    0.3213 C   0  0  3  0  0  0  0  0  0  0  0  0
    6.0251    2.6975    1.7391 C   0  0  3  0  0  0  0  0  0  0  0  0
    4.8157    3.6245    2.0162 C   0  0  3  0  0  0  0  0  0  0  0  0
    4.4717    4.6413    0.9082 C   0  0  3  0  0  0  0  0  0  0  0  0
    4.4757    3.9999   -0.4959 C   0  0  3  0  0  0  0  0  0  0  0  0
    5.7243    3.1433   -0.7692 C   0  0  3  0  0  0  0  0  0  0  0  0
    5.6367    2.4796   -2.0455 O   0  0  0  0  0  0  0  0  0  0  0  0
    4.3697    5.0526   -1.4755 O   0  0  0  0  0  0  0  0  0  0  0  0
    5.3787    5.8289    0.8760 N   0  0  0  0  0  0  0  0  0  0  0  0
    5.1135    6.8132    1.6575 C   0  0  0  0  0  0  0  0  0  0  0  0
    4.1566    6.8894    2.6115 N   0  0  0  0  0  0  0  0  0  0  0  0
    5.8180    7.9602    1.5705 N   0  0  0  0  0  0  0  0  0  0  0  0
    5.0422    4.3004    3.2678 O   0  0  0  0  0  0  0  0  0  0  0  0
    7.2424    3.5196    1.9046 N   0  0  0  0  0  0  0  0  0  0  0  0
    8.3534    2.9901    2.2349 C   0  0  0  0  0  0  0  0  0  0  0  0
    8.6700    1.7150    2.5339 N   0  0  0  0  0  0  0  0  0  0  0  0
    9.4600    3.7643    2.2965 N   0  0  0  0  0  0  0  0  0  0  0  0
    4.3928   -1.9873    0.2563 O   0  0  0  0  0  0  0  0  0  0  0  0
    5.6357   -2.1287    0.9421 C   0  0  3  0  0  0  0  0  0  0  0  0
    6.3406   -3.4202    0.4206 C   0  0  3  0  0  0  0  0  0  0  0  0
    5.5674   -4.6531    0.9524 C   0  0  3  0  0  0  0  0  0  0  0  0
    5.4040   -4.5921    2.4773 C   0  0  3  0  0  0  0  0  0  0  0  0
    4.7977   -3.2504    2.9007 C   0  0  3  0  0  0  0  0  0  0  0  0
    5.5146   -2.1188    2.3655 O   0  0  0  0  0  0  0  0  0  0  0  0
    4.7833   -3.0875    4.4222 C   0  0  0  0  0  0  0  0  0  0  0  0
    4.2374   -1.8071    4.7497 O   0  0  0  0  0  0  0  0  0  0  0  0
    6.6891   -4.8115    3.0872 O   0  0  0  0  0  0  0  0  0  0  0  0
    6.2709   -5.8613    0.6002 O   0  0  0  0  0  0  0  0  0  0  0  0
    7.7704   -3.5697    0.8297 N   0  0  0  0  0  0  0  0  0  0  0  0
    8.6324   -2.6019    0.1610 C   0  0  0  0  0  0  0  0  0  0  0  0
    1.1616   -1.2818   -0.0340 C   0  0  0  0  0  0  0  0  0  0  0  0
    0.9816   -2.0125    0.9364 O   0  0  0  0  0  0  0  0  0  0  0  0
    2.8714   -1.1981   -1.6808 O   0  0  0  0  0  0  0  0  0  0  0  0
    0.4939    1.1870   -1.4875 H   0  0  0  0  0  0  0  0  0  0  0  0
    1.1748    2.6351   -0.7330 H   0  0  0  0  0  0  0  0  0  0  0  0
    0.4698    1.3939    0.2836 H   0  0  0  0  0  0  0  0  0  0  0  0
    3.0098    1.2101   -1.3943 H   0  0  0  0  0  0  0  0  0  0  0  0
    3.0907   -1.1651    1.5993 H   0  0  0  0  0  0  0  0  0  0  0  0
    4.4748    0.5841    1.9675 H   0  0  0  0  0  0  0  0  0  0  0  0
    7.0437    1.7562    0.1112 H   0  0  0  0  0  0  0  0  0  0  0  0
    6.0207    1.9202    2.5115 H   0  0  0  0  0  0  0  0  0  0  0  0
    3.9296    3.0077    2.1815 H   0  0  0  0  0  0  0  0  0  0  0  0
    3.4503    5.0103    1.0806 H   0  0  0  0  0  0  0  0  0  0  0  0
    3.5796    3.3963   -0.6296 H   0  0  0  0  0  0  0  0  0  0  0  0
    6.5808    3.8213   -0.8616 H   0  0  0  0  0  0  0  0  0  0  0  0
    5.2589    1.6004   -1.8746 H   0  0  0  0  0  0  0  0  0  0  0  0
    4.8922    5.7880   -1.0918 H   0  0  0  0  0  0  0  0  0  0  0  0
    3.9317    5.9786    3.0094 H   0  0  0  0  0  0  0  0  0  0  0  0
    4.3020    7.5720    3.3397 H   0  0  0  0  0  0  0  0  0  0  0  0
    6.6352    7.8752    0.9761 H   0  0  0  0  0  0  0  0  0  0  0  0
    6.0033    8.4577    2.4287 H   0  0  0  0  0  0  0  0  0  0  0  0
    5.9652    4.6197    3.1580 H   0  0  0  0  0  0  0  0  0  0  0  0
    7.8979    1.1259    2.8215 H   0  0  0  0  0  0  0  0  0  0  0  0
    9.4293    1.6652    3.2038 H   0  0  0  0  0  0  0  0  0  0  0  0
    9.2714    4.6671    1.8709 H   0  0  0  0  0  0  0  0  0  0  0  0
   10.2693    3.3328    1.8669 H   0  0  0  0  0  0  0  0  0  0  0  0
    6.2465   -1.2680    0.6726 H   0  0  0  0  0  0  0  0  0  0  0  0
    6.2933   -3.4495   -0.6775 H   0  0  0  0  0  0  0  0  0  0  0  0
    4.5835   -4.7057    0.4756 H   0  0  0  0  0  0  0  0  0  0  0  0
    4.7771   -5.4240    2.8153 H   0  0  0  0  0  0  0  0  0  0  0  0
    3.7658   -3.1797    2.5440 H   0  0  0  0  0  0  0  0  0  0  0  0
    5.7920   -3.1204    4.8432 H   0  0  0  0  0  0  0  0  0  0  0  0
    4.1737   -3.8604    4.8986 H   0  0  0  0  0  0  0  0  0  0  0  0
    4.7766   -1.1718    4.2433 H   0  0  0  0  0  0  0  0  0  0  0  0
    7.3186   -4.1912    2.6530 H   0  0  0  0  0  0  0  0  0  0  0  0
    6.7281   -6.1449    1.4192 H   0  0  0  0  0  0  0  0  0  0  0  0
    8.0470   -4.5021    0.4934 H   0  0  0  0  0  0  0  0  0  0  0  0
    8.4028   -1.5757    0.4583 H   0  0  0  0  0  0  0  0  0  0  0  0
    8.5637   -2.6904   -0.9276 H   0  0  0  0  0  0  0  0  0  0  0  0
    9.6699   -2.7967    0.4477 H   0  0  0  0  0  0  0  0  0  0  0  0
    0.3334   -1.0859   -0.7367 H   0  0  0  0  0  0  0  0  0  0  0  0
    3.3823   -2.0033   -1.4564 H   0  0  0  0  0  0  0  0  0  0  0  0
  1  2  1  0  0  0  0
  1 41  1  0  0  0  0
  1 42  1  0  0  0  0
  1 43  1  0  0  0  0
  2  3  1  0  0  0  0
  2  6  1  0  0  0  0
  2 44  1  0  0  0  0
  3  4  1  0  0  0  0
  3 38  1  0  0  0  0
  3 40  1  0  0  0  0
  4  5  1  0  0  0  0
  4 25  1  0  0  0  0
  4 45  1  0  0  0  0
  5  6  1  0  0  0  0
  5  7  1  0  0  0  0
  5 46  1  0  0  0  0
  7  8  1  0  0  0  0
  8  9  1  0  0  0  0
  8 13  1  0  0  0  0
  8 47  1  0  0  0  0
  9 10  1  0  0  0  0
  9 21  1  0  0  0  0
  9 48  1  0  0  0  0
 10 11  1  0  0  0  0
 10 20  1  0  0  0  0
 10 49  1  0  0  0  0
 11 12  1  0  0  0  0
 11 16  1  0  0  0  0
 11 50  1  0  0  0  0
 12 13  1  0  0  0  0
 12 15  1  0  0  0  0
 12 51  1  0  0  0  0
 13 14  1  0  0  0  0
 13 52  1  0  0  0  0
 14 53  1  0  0  0  0
 15 54  1  0  0  0  0
 16 17  2  0  0  0  0
 17 18  1  0  0  0  0
 17 19  1  0  0  0  0
 18 55  1  0  0  0  0
 18 56  1  0  0  0  0
 19 57  1  0  0  0  0
 19 58  1  0  0  0  0
 20 59  1  0  0  0  0
 21 22  2  0  0  0  0
 22 23  1  0  0  0  0
 22 24  1  0  0  0  0
 23 60  1  0  0  0  0
 23 61  1  0  0  0  0
 24 62  1  0  0  0  0
 24 63  1  0  0  0  0
 25 26  1  0  0  0  0
 26 27  1  0  0  0  0
 26 31  1  0  0  0  0
 26 64  1  0  0  0  0
 27 28  1  0  0  0  0
 27 36  1  0  0  0  0
 27 65  1  0  0  0  0
 28 29  1  0  0  0  0
 28 35  1  0  0  0  0
 28 66  1  0  0  0  0
 29 30  1  0  0  0  0
 29 34  1  0  0  0  0
 29 67  1  0  0  0  0
 30 31  1  0  0  0  0
 30 32  1  0  0  0  0
 30 68  1  0  0  0  0
 32 33  1  0  0  0  0
 32 69  1  0  0  0  0
 32 70  1  0  0  0  0
 33 71  1  0  0  0  0
 34 72  1  0  0  0  0
 35 73  1  0  0  0  0
 36 37  1  0  0  0  0
 36 74  1  0  0  0  0
 37 75  1  0  0  0  0
 37 76  1  0  0  0  0
 37 77  1  0  0  0  0
 38 39  2  0  0  0  0
 38 78  1  0  0  0  0
 40 79  1  0  0  0  0
M  END
