
 OpenBabel10072619533D

 23 24  0  0  0  0  0  0  0  0999 V2000
   -2.6419   -2.6995   -1.6715 C   0  0  0  0  0  0  0  0  0  0  0  0
   -1.9233   -2.2685   -2.7655 C   0  0  0  0  0  0  0  0  0  0  0  0
   -0.2945   -1.9969   -2.3044 S   0  0  0  0  0  0  0  0  0  0  0  0
   -0.6768   -2.4846   -0.7125 C   0  0  0  0  0  0  0  0  0  0  0  0
   -1.9263   -2.8121   -0.4953 N   0  0  0  0  0  0  0  0  0  0  0  0
    0.2030   -2.5055    0.3937 N   0  0  0  0  0  0  0  0  0  0  0  0
    1.5106   -3.5681    0.2273 S   0  0  0  0  0  0  0  0  0  0  0  0
    2.2724   -3.1710   -0.9428 O   0  0  0  0  0  0  0  0  0  0  0  0
    2.1771   -3.5679    1.5165 O   0  0  0  0  0  0  0  0  0  0  0  0
    0.8605   -5.1434   -0.0246 C   0  0  0  0  0  0  0  0  0  0  0  0
    1.2799   -5.9166   -1.0341 C   0  0  0  0  0  0  0  0  0  0  0  0
    0.7594   -7.1716   -1.2171 N   0  0  0  0  0  0  0  0  0  0  0  0
   -0.1792   -7.7337   -0.3901 C   0  0  0  0  0  0  0  0  0  0  0  0
   -0.6273   -8.8573   -0.5821 O   0  0  0  0  0  0  0  0  0  0  0  0
   -0.5818   -6.9469    0.6557 N   0  0  0  0  0  0  0  0  0  0  0  0
   -0.1637   -5.6616    0.8918 C   0  0  0  0  0  0  0  0  0  0  0  0
   -0.6347   -4.9810    1.7974 O   0  0  0  0  0  0  0  0  0  0  0  0
   -3.6996   -2.9356   -1.6722 H   0  0  0  0  0  0  0  0  0  0  0  0
   -2.2683   -2.0922   -3.7746 H   0  0  0  0  0  0  0  0  0  0  0  0
   -0.3276   -2.7393    1.2387 H   0  0  0  0  0  0  0  0  0  0  0  0
    2.0362   -5.6003   -1.7475 H   0  0  0  0  0  0  0  0  0  0  0  0
    1.0696   -7.7511   -1.9918 H   0  0  0  0  0  0  0  0  0  0  0  0
   -1.2889   -7.3266    1.2677 H   0  0  0  0  0  0  0  0  0  0  0  0
  1  2  2  0  0  0  0
  1  5  1  0  0  0  0
  1 18  1  0  0  0  0
  2  3  1  0  0  0  0
  2 19  1  0  0  0  0
  3  4  1  0  0  0  0
  4  5  2  0  0  0  0
  4  6  1  0  0  0  0
  6  7  1  0  0  0  0
  6 20  1  0  0  0  0
  7  8  2  0  0  0  0
  7  9  2  0  0  0  0
  7 10  1  0  0  0  0
 10 11  2  0  0  0  0
 10 16  1  0  0  0  0
 11 12  1  0  0  0  0
 11 21  1  0  0  0  0
 12 13  1  0  0  0  0
 12 22  1  0  0  0  0
 13 14  2  0  0  0  0
 13 15  1  0  0  0  0
 15 16  1  0  0  0  0
 15 23  1  0  0  0  0
 16 17  2  0  0  0  0
M  END
