
 OpenBabel10072620023D

 52 56  0  0  0  0  0  0  0  0999 V2000
   -5.3719   -1.4748   -7.0993 C   0  0  0  0  0  0  0  0  0  0  0  0
   -4.2607   -2.1419   -6.5937 C   0  0  0  0  0  0  0  0  0  0  0  0
   -3.7868   -1.8382   -5.3174 C   0  0  0  0  0  0  0  0  0  0  0  0
   -4.4189   -0.8600   -4.5337 C   0  0  0  0  0  0  0  0  0  0  0  0
   -3.9409   -0.5331   -3.2574 C   0  0  0  0  0  0  0  0  0  0  0  0
   -4.5856    0.4488   -2.4940 C   0  0  0  0  0  0  0  0  0  0  0  0
   -5.6934    1.1320   -2.9942 C   0  0  0  0  0  0  0  0  0  0  0  0
   -6.1795    0.8043   -4.2614 C   0  0  0  0  0  0  0  0  0  0  0  0
   -5.5521   -0.1831   -5.0434 C   0  0  0  0  0  0  0  0  0  0  0  0
   -6.0161   -0.5048   -6.3289 C   0  0  0  0  0  0  0  0  0  0  0  0
   -3.9427    0.8682   -0.8868 S   0  0  0  0  0  0  0  0  0  0  0  0
   -2.6141    0.2843   -0.8071 O   0  0  0  0  0  0  0  0  0  0  0  0
   -4.0779    2.3006   -0.7415 O   0  0  0  0  0  0  0  0  0  0  0  0
   -4.9370    0.0353    0.1779 N   0  0  0  0  0  0  0  0  0  0  0  0
   -4.8189   -1.4002    0.1596 C   0  0  0  0  0  0  0  0  0  0  0  0
   -3.9059   -1.9989    1.0292 C   0  0  0  0  0  0  0  0  0  0  0  0
   -3.7186   -3.3750    0.9861 C   0  0  0  0  0  0  0  0  0  0  0  0
   -4.4132   -4.1699    0.0817 C   0  0  0  0  0  0  0  0  0  0  0  0
   -5.3271   -3.5816   -0.7876 C   0  0  0  0  0  0  0  0  0  0  0  0
   -5.5316   -2.2006   -0.7470 C   0  0  0  0  0  0  0  0  0  0  0  0
   -2.8481   -3.9463    1.8275 F   0  0  0  0  0  0  0  0  0  0  0  0
   -6.4155    0.6710    0.6448 S   0  0  0  0  0  0  0  0  0  0  0  0
   -6.4026    2.1161    0.6900 O   0  0  0  0  0  0  0  0  0  0  0  0
   -7.4842   -0.0109   -0.0596 O   0  0  0  0  0  0  0  0  0  0  0  0
   -6.4711    0.1367    2.3495 C   0  0  0  0  0  0  0  0  0  0  0  0
   -5.7230    0.8426    3.2992 C   0  0  0  0  0  0  0  0  0  0  0  0
   -5.6879    0.4057    4.6305 C   0  0  0  0  0  0  0  0  0  0  0  0
   -4.9333    1.0857    5.6004 C   0  0  0  0  0  0  0  0  0  0  0  0
   -4.8909    0.6295    6.9187 C   0  0  0  0  0  0  0  0  0  0  0  0
   -5.6006   -0.5108    7.2835 C   0  0  0  0  0  0  0  0  0  0  0  0
   -6.3636   -1.1930    6.3335 C   0  0  0  0  0  0  0  0  0  0  0  0
   -6.4208   -0.7467    5.0035 C   0  0  0  0  0  0  0  0  0  0  0  0
   -7.1903   -1.4198    4.0379 C   0  0  0  0  0  0  0  0  0  0  0  0
   -7.2247   -0.9782    2.7144 C   0  0  0  0  0  0  0  0  0  0  0  0
   -5.7356   -1.7048   -8.0976 H   0  0  0  0  0  0  0  0  0  0  0  0
   -3.7566   -2.8939   -7.1950 H   0  0  0  0  0  0  0  0  0  0  0  0
   -2.9112   -2.3648   -4.9434 H   0  0  0  0  0  0  0  0  0  0  0  0
   -3.0653   -1.0441   -2.8595 H   0  0  0  0  0  0  0  0  0  0  0  0
   -6.1761    1.9222   -2.4213 H   0  0  0  0  0  0  0  0  0  0  0  0
   -7.0494    1.3367   -4.6423 H   0  0  0  0  0  0  0  0  0  0  0  0
   -6.8788    0.0081   -6.7478 H   0  0  0  0  0  0  0  0  0  0  0  0
   -3.3313   -1.4102    1.7376 H   0  0  0  0  0  0  0  0  0  0  0  0
   -4.2369   -5.2408    0.0602 H   0  0  0  0  0  0  0  0  0  0  0  0
   -5.8746   -4.1920   -1.5026 H   0  0  0  0  0  0  0  0  0  0  0  0
   -6.2499   -1.7680   -1.4418 H   0  0  0  0  0  0  0  0  0  0  0  0
   -5.1572    1.7246    3.0026 H   0  0  0  0  0  0  0  0  0  0  0  0
   -4.3722    1.9809    5.3387 H   0  0  0  0  0  0  0  0  0  0  0  0
   -4.3036    1.1648    7.6612 H   0  0  0  0  0  0  0  0  0  0  0  0
   -5.5686   -0.8649    8.3110 H   0  0  0  0  0  0  0  0  0  0  0  0
   -6.9135   -2.0796    6.6421 H   0  0  0  0  0  0  0  0  0  0  0  0
   -7.7663   -2.3011    4.3136 H   0  0  0  0  0  0  0  0  0  0  0  0
   -7.8204   -1.5183    1.9826 H   0  0  0  0  0  0  0  0  0  0  0  0
  1  2  2  0  0  0  0
  1 10  1  0  0  0  0
  1 35  1  0  0  0  0
  2  3  1  0  0  0  0
  2 36  1  0  0  0  0
  3  4  2  0  0  0  0
  3 37  1  0  0  0  0
  4  5  1  0  0  0  0
  4  9  1  0  0  0  0
  5  6  2  0  0  0  0
  5 38  1  0  0  0  0
  6  7  1  0  0  0  0
  6 11  1  0  0  0  0
  7  8  2  0  0  0  0
  7 39  1  0  0  0  0
  8  9  1  0  0  0  0
  8 40  1  0  0  0  0
  9 10  2  0  0  0  0
 10 41  1  0  0  0  0
 11 12  2  0  0  0  0
 11 13  2  0  0  0  0
 11 14  1  0  0  0  0
 14 15  1  0  0  0  0
 14 22  1  0  0  0  0
 15 16  2  0  0  0  0
 15 20  1  0  0  0  0
 16 17  1  0  0  0  0
 16 42  1  0  0  0  0
 17 18  2  0  0  0  0
 17 21  1  0  0  0  0
 18 19  1  0  0  0  0
 18 43  1  0  0  0  0
 19 20  2  0  0  0  0
 19 44  1  0  0  0  0
 20 45  1  0  0  0  0
 22 23  2  0  0  0  0
 22 24  2  0  0  0  0
 22 25  1  0  0  0  0
 25 26  2  0  0  0  0
 25 34  1  0  0  0  0
 26 27  1  0  0  0  0
 26 46  1  0  0  0  0
 27 28  2  0  0  0  0
 27 32  1  0  0  0  0
 28 29  1  0  0  0  0
 28 47  1  0  0  0  0
 29 30  2  0  0  0  0
 29 48  1  0  0  0  0
 30 31  1  0  0  0  0
 30 49  1  0  0  0  0
 31 32  2  0  0  0  0
 31 50  1  0  0  0  0
 32 33  1  0  0  0  0
 33 34  2  0  0  0  0
 33 51  1  0  0  0  0
 34 52  1  0  0  0  0
M  END
