
 OpenBabel10072616313D

 38 39  0  0  0  0  0  0  0  0999 V2000
    2.5122   -0.0589   -0.1573 C   0  0  0  0  0  0  0  0  0  0  0  0
    1.0249   -0.0601   -0.3479 C   0  0  0  0  0  0  0  0  0  0  0  0
    0.2510    0.9644    0.2083 C   0  0  0  0  0  0  0  0  0  0  0  0
   -1.1478    0.9690    0.0678 C   0  0  0  0  0  0  0  0  0  0  0  0
   -1.7932   -0.0536   -0.6428 C   0  0  0  0  0  0  0  0  0  0  0  0
   -1.0097   -1.0977   -1.1645 C   0  0  0  0  0  0  0  0  0  0  0  0
    0.3829   -1.1007   -1.0215 C   0  0  0  0  0  0  0  0  0  0  0  0
   -3.5603   -0.1148   -0.9006 S   0  0  0  0  0  0  0  0  0  0  0  0
   -3.7316    0.1347   -2.6659 C   0  0  0  0  0  0  0  0  0  0  0  0
   -4.8655   -0.3906   -3.3008 C   0  0  0  0  0  0  0  0  0  0  0  0
   -5.0624   -0.1983   -4.6723 C   0  0  0  0  0  0  0  0  0  0  0  0
   -4.1302    0.5193   -5.4184 C   0  0  0  0  0  0  0  0  0  0  0  0
   -3.0037    1.0461   -4.7945 C   0  0  0  0  0  0  0  0  0  0  0  0
   -2.8081    0.8593   -3.4267 C   0  0  0  0  0  0  0  0  0  0  0  0
   -1.8554    2.1265    0.6850 C   0  0  0  0  0  0  0  0  0  0  0  0
   -1.8714    2.4179    1.9514 N   0  0  0  0  0  0  0  0  0  0  0  0
   -1.3591    1.5038    2.8281 N   0  0  0  0  0  0  0  0  0  0  0  0
   -1.0854    1.8216    4.1315 C   0  0  0  0  0  0  0  0  0  0  0  0
   -0.7661    0.9943    4.9753 O   0  0  0  0  0  0  0  0  0  0  0  0
   -1.1495    3.1508    4.3997 N   0  0  0  0  0  0  0  0  0  0  0  0
   -2.5051    3.1209   -0.2498 C   0  0  0  0  0  0  0  0  0  0  0  0
    2.8934    0.9672   -0.1329 H   0  0  0  0  0  0  0  0  0  0  0  0
    3.0164   -0.5717   -0.9823 H   0  0  0  0  0  0  0  0  0  0  0  0
    2.7709   -0.5524    0.7841 H   0  0  0  0  0  0  0  0  0  0  0  0
    0.7371    1.7719    0.7553 H   0  0  0  0  0  0  0  0  0  0  0  0
   -1.4751   -1.9220   -1.7034 H   0  0  0  0  0  0  0  0  0  0  0  0
    0.9596   -1.9252   -1.4396 H   0  0  0  0  0  0  0  0  0  0  0  0
   -5.6063   -0.9533   -2.7374 H   0  0  0  0  0  0  0  0  0  0  0  0
   -5.9432   -0.6054   -5.1592 H   0  0  0  0  0  0  0  0  0  0  0  0
   -4.2823    0.6737   -6.4834 H   0  0  0  0  0  0  0  0  0  0  0  0
   -2.2751    1.6123   -5.3683 H   0  0  0  0  0  0  0  0  0  0  0  0
   -1.9244    1.2974   -2.9697 H   0  0  0  0  0  0  0  0  0  0  0  0
   -1.3087    0.5212    2.5761 H   0  0  0  0  0  0  0  0  0  0  0  0
   -1.7173    3.6732    3.7477 H   0  0  0  0  0  0  0  0  0  0  0  0
   -1.1416    3.4212    5.3717 H   0  0  0  0  0  0  0  0  0  0  0  0
   -2.2913    2.9044   -1.2966 H   0  0  0  0  0  0  0  0  0  0  0  0
   -2.1289    4.1244   -0.0277 H   0  0  0  0  0  0  0  0  0  0  0  0
   -3.5858    3.1176   -0.0853 H   0  0  0  0  0  0  0  0  0  0  0  0
  1  2  1  0  0  0  0
  1 22  1  0  0  0  0
  1 23  1  0  0  0  0
  1 24  1  0  0  0  0
  2  3  2  0  0  0  0
  2  7  1  0  0  0  0
  3  4  1  0  0  0  0
  3 25  1  0  0  0  0
  4  5  2  0  0  0  0
  4 15  1  0  0  0  0
  5  6  1  0  0  0  0
  5  8  1  0  0  0  0
  6  7  2  0  0  0  0
  6 26  1  0  0  0  0
  7 27  1  0  0  0  0
  8  9  1  0  0  0  0
  9 10  2  0  0  0  0
  9 14  1  0  0  0  0
 10 11  1  0  0  0  0
 10 28  1  0  0  0  0
 11 12  2  0  0  0  0
 11 29  1  0  0  0  0
 12 13  1  0  0  0  0
 12 30  1  0  0  0  0
 13 14  2  0  0  0  0
 13 31  1  0  0  0  0
 14 32  1  0  0  0  0
 15 16  2  0  0  0  0
 15 21  1  0  0  0  0
 16 17  1  0  0  0  0
 17 18  1  0  0  0  0
 17 33  1  0  0  0  0
 18 19  2  0  0  0  0
 18 20  1  0  0  0  0
 20 34  1  0  0  0  0
 20 35  1  0  0  0  0
 21 36  1  0  0  0  0
 21 37  1  0  0  0  0
 21 38  1  0  0  0  0
M  END
