
 OpenBabel10072619513D

 46 47  0  0  0  0  0  0  0  0999 V2000
    1.0420   -1.5514   -2.0106 C   0  0  0  0  0  0  0  0  0  0  0  0
    2.5611   -1.4969   -2.0315 C   0  0  0  0  0  0  0  0  0  0  0  0
    3.0758   -0.1233   -2.4548 C   0  0  0  0  0  0  0  0  0  0  0  0
    4.5986   -0.0468   -2.3749 C   0  0  0  0  0  0  0  0  0  0  0  0
    5.0065    1.2522   -2.8063 O   0  0  0  0  0  0  0  0  0  0  0  0
    6.3343    1.5603   -2.6836 C   0  0  0  0  0  0  0  0  0  0  0  0
    7.3400    0.6820   -2.2793 C   0  0  0  0  0  0  0  0  0  0  0  0
    8.6585    1.1263   -2.1754 C   0  0  0  0  0  0  0  0  0  0  0  0
    8.9809    2.4491   -2.4795 C   0  0  0  0  0  0  0  0  0  0  0  0
    7.9877    3.3376   -2.9113 C   0  0  0  0  0  0  0  0  0  0  0  0
    6.6643    2.8824   -3.0026 C   0  0  0  0  0  0  0  0  0  0  0  0
    8.2745    4.7726   -3.2295 C   0  0  0  0  0  0  0  0  0  0  0  0
    7.3662    5.5886   -3.1361 O   0  0  0  0  0  0  0  0  0  0  0  0
    9.5941    5.0645   -3.5790 N   0  0  0  0  0  0  0  0  0  0  0  0
   10.1783    6.2472   -3.9971 C   0  0  0  0  0  0  0  0  0  0  0  0
    9.4068    7.6492   -4.4698 S   0  0  0  0  0  0  0  0  0  0  0  0
   11.5519    6.2192   -4.1100 N   0  0  0  0  0  0  0  0  0  0  0  0
   12.5082    5.4368   -3.4295 C   0  0  0  0  0  0  0  0  0  0  0  0
   12.2448    4.7552   -2.2413 C   0  0  0  0  0  0  0  0  0  0  0  0
   13.2399    3.9905   -1.6222 C   0  0  0  0  0  0  0  0  0  0  0  0
   14.5259    3.9088   -2.1737 C   0  0  0  0  0  0  0  0  0  0  0  0
   14.7995    4.6438   -3.3346 C   0  0  0  0  0  0  0  0  0  0  0  0
   13.8044    5.4082   -3.9501 C   0  0  0  0  0  0  0  0  0  0  0  0
   15.6234    3.1071   -1.5345 C   0  0  0  0  0  0  0  0  0  0  0  0
   12.8307    3.1658   -0.1590 Cl  0  0  0  0  0  0  0  0  0  0  0  0
    0.7049   -2.5505   -1.7156 H   0  0  0  0  0  0  0  0  0  0  0  0
    0.6255   -1.3290   -2.9981 H   0  0  0  0  0  0  0  0  0  0  0  0
    0.6345   -0.8316   -1.2933 H   0  0  0  0  0  0  0  0  0  0  0  0
    2.9397   -2.2606   -2.7206 H   0  0  0  0  0  0  0  0  0  0  0  0
    2.9400   -1.7458   -1.0337 H   0  0  0  0  0  0  0  0  0  0  0  0
    2.6432    0.6592   -1.8199 H   0  0  0  0  0  0  0  0  0  0  0  0
    2.7502    0.1070   -3.4763 H   0  0  0  0  0  0  0  0  0  0  0  0
    5.0412   -0.8091   -3.0264 H   0  0  0  0  0  0  0  0  0  0  0  0
    4.9091   -0.2158   -1.3370 H   0  0  0  0  0  0  0  0  0  0  0  0
    7.1315   -0.3524   -2.0275 H   0  0  0  0  0  0  0  0  0  0  0  0
    9.4339    0.4426   -1.8363 H   0  0  0  0  0  0  0  0  0  0  0  0
   10.0098    2.7572   -2.3372 H   0  0  0  0  0  0  0  0  0  0  0  0
    5.8740    3.5656   -3.3107 H   0  0  0  0  0  0  0  0  0  0  0  0
   10.1990    4.2715   -3.7231 H   0  0  0  0  0  0  0  0  0  0  0  0
   11.9191    6.9674   -4.6900 H   0  0  0  0  0  0  0  0  0  0  0  0
   11.2848    4.8549   -1.7409 H   0  0  0  0  0  0  0  0  0  0  0  0
   15.7976    4.6278   -3.7706 H   0  0  0  0  0  0  0  0  0  0  0  0
   14.0560    5.9632   -4.8505 H   0  0  0  0  0  0  0  0  0  0  0  0
   15.9359    3.5753   -0.5962 H   0  0  0  0  0  0  0  0  0  0  0  0
   16.5012    3.0433   -2.1866 H   0  0  0  0  0  0  0  0  0  0  0  0
   15.2954    2.0807   -1.3420 H   0  0  0  0  0  0  0  0  0  0  0  0
  1  2  1  0  0  0  0
  1 26  1  0  0  0  0
  1 27  1  0  0  0  0
  1 28  1  0  0  0  0
  2  3  1  0  0  0  0
  2 29  1  0  0  0  0
  2 30  1  0  0  0  0
  3  4  1  0  0  0  0
  3 31  1  0  0  0  0
  3 32  1  0  0  0  0
  4  5  1  0  0  0  0
  4 33  1  0  0  0  0
  4 34  1  0  0  0  0
  5  6  1  0  0  0  0
  6  7  2  0  0  0  0
  6 11  1  0  0  0  0
  7  8  1  0  0  0  0
  7 35  1  0  0  0  0
  8  9  2  0  0  0  0
  8 36  1  0  0  0  0
  9 10  1  0  0  0  0
  9 37  1  0  0  0  0
 10 11  2  0  0  0  0
 10 12  1  0  0  0  0
 11 38  1  0  0  0  0
 12 13  2  0  0  0  0
 12 14  1  0  0  0  0
 14 15  1  0  0  0  0
 14 39  1  0  0  0  0
 15 16  2  0  0  0  0
 15 17  1  0  0  0  0
 17 18  1  0  0  0  0
 17 40  1  0  0  0  0
 18 19  2  0  0  0  0
 18 23  1  0  0  0  0
 19 20  1  0  0  0  0
 19 41  1  0  0  0  0
 20 21  2  0  0  0  0
 20 25  1  0  0  0  0
 21 22  1  0  0  0  0
 21 24  1  0  0  0  0
 22 23  2  0  0  0  0
 22 42  1  0  0  0  0
 23 43  1  0  0  0  0
 24 44  1  0  0  0  0
 24 45  1  0  0  0  0
 24 46  1  0  0  0  0
M  END
