
 OpenBabel10072616333D

 41 43  0  0  0  0  0  0  0  0999 V2000
   -5.2048    6.8863    8.8181 C   0  0  0  0  0  0  0  0  0  0  0  0
   -3.8351    7.0203    9.4891 C   0  0  0  0  0  0  0  0  0  0  0  0
   -3.4501    5.7302   10.2177 C   0  0  0  0  0  0  0  0  0  0  0  0
   -2.7619    7.4414    8.4977 C   0  0  0  0  0  0  0  0  0  0  0  0
   -2.0695    8.6477    8.6955 C   0  0  0  0  0  0  0  0  0  0  0  0
   -1.0812    9.0613    7.7995 C   0  0  0  0  0  0  0  0  0  0  0  0
   -0.7739    8.2613    6.6979 C   0  0  0  0  0  0  0  0  0  0  0  0
   -1.4543    7.0618    6.4778 C   0  0  0  0  0  0  0  0  0  0  0  0
   -2.4420    6.6549    7.3782 C   0  0  0  0  0  0  0  0  0  0  0  0
    0.4650    8.7963    5.5379 S   0  0  0  0  0  0  0  0  0  0  0  0
    0.1474    8.1882    4.2600 O   0  0  0  0  0  0  0  0  0  0  0  0
    0.5726   10.2380    5.6493 O   0  0  0  0  0  0  0  0  0  0  0  0
    1.8189    8.1278    6.1176 N   0  0  0  0  0  0  0  0  0  0  0  0
    2.9582    8.2046    5.5100 C   0  0  0  0  0  0  0  0  0  0  0  0
    3.2374    8.8950    4.2205 C   0  0  0  0  0  0  0  0  0  0  0  0
    4.4339    8.8537    3.6280 C   0  0  0  0  0  0  0  0  0  0  0  0
    5.5810    8.1158    4.2054 C   0  0  0  0  0  0  0  0  0  0  0  0
    6.6644    8.0269    3.6398 O   0  0  0  0  0  0  0  0  0  0  0  0
    5.3730    7.4860    5.5231 C   0  0  0  0  0  0  0  0  0  0  0  0
    6.4533    6.8355    6.1402 C   0  0  0  0  0  0  0  0  0  0  0  0
    6.2960    6.2483    7.3951 C   0  0  0  0  0  0  0  0  0  0  0  0
    5.0618    6.3041    8.0366 C   0  0  0  0  0  0  0  0  0  0  0  0
    3.9820    6.9407    7.4197 C   0  0  0  0  0  0  0  0  0  0  0  0
    4.1295    7.5364    6.1555 C   0  0  0  0  0  0  0  0  0  0  0  0
    4.6894    9.6766    2.1314 Cl  0  0  0  0  0  0  0  0  0  0  0  0
   -5.9790    6.6647    9.5608 H   0  0  0  0  0  0  0  0  0  0  0  0
   -5.2210    6.0839    8.0728 H   0  0  0  0  0  0  0  0  0  0  0  0
   -5.4836    7.8174    8.3120 H   0  0  0  0  0  0  0  0  0  0  0  0
   -3.9299    7.8036   10.2530 H   0  0  0  0  0  0  0  0  0  0  0  0
   -3.3788    4.8775    9.5339 H   0  0  0  0  0  0  0  0  0  0  0  0
   -4.1935    5.4816   10.9832 H   0  0  0  0  0  0  0  0  0  0  0  0
   -2.4809    5.8392   10.7171 H   0  0  0  0  0  0  0  0  0  0  0  0
   -2.3004    9.2801    9.5507 H   0  0  0  0  0  0  0  0  0  0  0  0
   -0.5631   10.0030    7.9658 H   0  0  0  0  0  0  0  0  0  0  0  0
   -1.2271    6.4432    5.6123 H   0  0  0  0  0  0  0  0  0  0  0  0
   -2.9650    5.7185    7.1943 H   0  0  0  0  0  0  0  0  0  0  0  0
    2.4312    9.4443    3.7472 H   0  0  0  0  0  0  0  0  0  0  0  0
    7.4230    6.7862    5.6458 H   0  0  0  0  0  0  0  0  0  0  0  0
    7.1368    5.7491    7.8716 H   0  0  0  0  0  0  0  0  0  0  0  0
    4.9370    5.8509    9.0180 H   0  0  0  0  0  0  0  0  0  0  0  0
    3.0265    6.9664    7.9400 H   0  0  0  0  0  0  0  0  0  0  0  0
  1  2  1  0  0  0  0
  1 26  1  0  0  0  0
  1 27  1  0  0  0  0
  1 28  1  0  0  0  0
  2  3  1  0  0  0  0
  2  4  1  0  0  0  0
  2 29  1  0  0  0  0
  3 30  1  0  0  0  0
  3 31  1  0  0  0  0
  3 32  1  0  0  0  0
  4  5  2  0  0  0  0
  4  9  1  0  0  0  0
  5  6  1  0  0  0  0
  5 33  1  0  0  0  0
  6  7  2  0  0  0  0
  6 34  1  0  0  0  0
  7  8  1  0  0  0  0
  7 10  1  0  0  0  0
  8  9  2  0  0  0  0
  8 35  1  0  0  0  0
  9 36  1  0  0  0  0
 10 11  2  0  0  0  0
 10 12  2  0  0  0  0
 10 13  1  0  0  0  0
 13 14  2  3  0  0  0
 14 15  1  0  0  0  0
 14 24  1  0  0  0  0
 15 16  2  0  0  0  0
 15 37  1  0  0  0  0
 16 17  1  0  0  0  0
 16 25  1  0  0  0  0
 17 18  2  0  0  0  0
 17 19  1  0  0  0  0
 19 20  2  0  0  0  0
 19 24  1  0  0  0  0
 20 21  1  0  0  0  0
 20 38  1  0  0  0  0
 21 22  2  0  0  0  0
 21 39  1  0  0  0  0
 22 23  1  0  0  0  0
 22 40  1  0  0  0  0
 23 24  2  0  0  0  0
 23 41  1  0  0  0  0
M  END
