
 OpenBabel10072620093D

 44 46  0  0  0  0  0  0  0  0999 V2000
   -2.1292   -7.2915    2.6548 C   0  0  0  0  0  0  0  0  0  0  0  0
   -1.5550   -6.1617    1.3597 S   0  0  0  0  0  0  0  0  0  0  0  0
   -0.8278   -4.8993    2.3872 C   0  0  0  0  0  0  0  0  0  0  0  0
   -1.6336   -3.9979    3.0915 C   0  0  0  0  0  0  0  0  0  0  0  0
   -1.0523   -3.0212    3.9012 C   0  0  0  0  0  0  0  0  0  0  0  0
    0.3348   -2.9436    4.0094 C   0  0  0  0  0  0  0  0  0  0  0  0
    1.1413   -3.8260    3.2916 C   0  0  0  0  0  0  0  0  0  0  0  0
    0.5644   -4.8002    2.4757 C   0  0  0  0  0  0  0  0  0  0  0  0
    2.5541   -3.7810    3.4509 N   0  0  0  0  0  0  0  0  0  0  0  0
    3.2218   -4.3249    4.9096 S   0  0  0  0  0  0  0  0  0  0  0  0
    4.6569   -4.3502    4.7068 O   0  0  0  0  0  0  0  0  0  0  0  0
    2.6325   -3.6033    6.0140 O   0  0  0  0  0  0  0  0  0  0  0  0
    2.6679   -6.0153    4.9930 C   0  0  0  0  0  0  0  0  0  0  0  0
    3.4502   -7.0193    4.4172 C   0  0  0  0  0  0  0  0  0  0  0  0
    2.9954   -8.3372    4.4320 C   0  0  0  0  0  0  0  0  0  0  0  0
    1.7811   -8.6557    5.0485 C   0  0  0  0  0  0  0  0  0  0  0  0
    1.0144   -7.6510    5.6482 C   0  0  0  0  0  0  0  0  0  0  0  0
    1.4660   -6.3286    5.6370 C   0  0  0  0  0  0  0  0  0  0  0  0
    1.3715   -9.9611    4.9126 O   0  0  0  0  0  0  0  0  0  0  0  0
    0.6815  -10.5596    5.9560 C   0  0  0  0  0  0  0  0  0  0  0  0
   -0.2739  -11.5203    5.6407 C   0  0  0  0  0  0  0  0  0  0  0  0
   -0.9302  -12.1697    6.6862 C   0  0  0  0  0  0  0  0  0  0  0  0
   -0.6018  -11.8565    8.0119 C   0  0  0  0  0  0  0  0  0  0  0  0
    0.3725  -10.8912    8.2256 C   0  0  0  0  0  0  0  0  0  0  0  0
    1.0255  -10.2446    7.2312 N   0  0  0  0  0  0  0  0  0  0  0  0
   -1.2702  -12.5140    9.1808 C   0  0  0  0  0  0  0  0  0  0  0  0
   -2.0637  -13.5616    8.8271 F   0  0  0  0  0  0  0  0  0  0  0  0
   -0.3805  -13.0067   10.0841 F   0  0  0  0  0  0  0  0  0  0  0  0
   -2.0703  -11.6555    9.8680 F   0  0  0  0  0  0  0  0  0  0  0  0
   -0.6839  -11.9190    4.0170 Cl  0  0  0  0  0  0  0  0  0  0  0  0
   -2.5948   -8.1652    2.1911 H   0  0  0  0  0  0  0  0  0  0  0  0
   -2.8698   -6.8035    3.2935 H   0  0  0  0  0  0  0  0  0  0  0  0
   -1.2896   -7.6308    3.2672 H   0  0  0  0  0  0  0  0  0  0  0  0
   -2.7173   -4.0439    3.0116 H   0  0  0  0  0  0  0  0  0  0  0  0
   -1.6780   -2.3217    4.4502 H   0  0  0  0  0  0  0  0  0  0  0  0
    0.7821   -2.1853    4.6486 H   0  0  0  0  0  0  0  0  0  0  0  0
    1.1910   -5.4980    1.9267 H   0  0  0  0  0  0  0  0  0  0  0  0
    3.1341   -4.0223    2.6487 H   0  0  0  0  0  0  0  0  0  0  0  0
    4.4044   -6.7863    3.9507 H   0  0  0  0  0  0  0  0  0  0  0  0
    3.5852   -9.1196    3.9600 H   0  0  0  0  0  0  0  0  0  0  0  0
    0.0623   -7.8804    6.1196 H   0  0  0  0  0  0  0  0  0  0  0  0
    0.8689   -5.5517    6.1087 H   0  0  0  0  0  0  0  0  0  0  0  0
   -1.6911  -12.9175    6.4704 H   0  0  0  0  0  0  0  0  0  0  0  0
    0.6722  -10.5983    9.2320 H   0  0  0  0  0  0  0  0  0  0  0  0
  1  2  1  0  0  0  0
  1 31  1  0  0  0  0
  1 32  1  0  0  0  0
  1 33  1  0  0  0  0
  2  3  1  0  0  0  0
  3  4  2  0  0  0  0
  3  8  1  0  0  0  0
  4  5  1  0  0  0  0
  4 34  1  0  0  0  0
  5  6  2  0  0  0  0
  5 35  1  0  0  0  0
  6  7  1  0  0  0  0
  6 36  1  0  0  0  0
  7  8  2  0  0  0  0
  7  9  1  0  0  0  0
  8 37  1  0  0  0  0
  9 10  1  0  0  0  0
  9 38  1  0  0  0  0
 10 11  2  0  0  0  0
 10 12  2  0  0  0  0
 10 13  1  0  0  0  0
 13 14  2  0  0  0  0
 13 18  1  0  0  0  0
 14 15  1  0  0  0  0
 14 39  1  0  0  0  0
 15 16  2  0  0  0  0
 15 40  1  0  0  0  0
 16 17  1  0  0  0  0
 16 19  1  0  0  0  0
 17 18  2  0  0  0  0
 17 41  1  0  0  0  0
 18 42  1  0  0  0  0
 19 20  1  0  0  0  0
 20 21  2  0  0  0  0
 20 25  1  0  0  0  0
 21 22  1  0  0  0  0
 21 30  1  0  0  0  0
 22 23  2  0  0  0  0
 22 43  1  0  0  0  0
 23 24  1  0  0  0  0
 23 26  1  0  0  0  0
 24 25  2  0  0  0  0
 24 44  1  0  0  0  0
 26 27  1  0  0  0  0
 26 28  1  0  0  0  0
 26 29  1  0  0  0  0
M  END
