
 OpenBabel10072619293D

160168  0  0  1  0  0  0  0  0999 V2000
    3.1003   -3.9155    2.9110 C   0  0  0  0  0  0  0  0  0  0  0  0
    3.8553   -4.3723    1.6599 C   0  0  3  0  0  0  0  0  0  0  0  0
    3.6461   -5.8775    1.3458 C   0  0  2  0  0  0  0  0  0  0  0  0
    4.9861   -6.5779    1.0627 C   0  0  3  0  0  0  0  0  0  0  0  0
    5.8544   -5.7370    0.1190 C   0  0  3  0  0  0  0  0  0  0  0  0
    6.0103   -4.2854    0.6348 C   0  0  2  0  0  0  0  0  0  0  0  0
    5.2358   -4.0261    1.8098 O   0  0  0  0  0  0  0  0  0  0  0  0
    5.6409   -3.3378   -0.3762 O   0  0  0  0  0  0  0  0  0  0  0  0
    6.7466   -2.8952   -1.1901 C   0  0  2  0  0  0  0  0  0  0  0  0
    7.2467   -1.4755   -0.7846 C   0  0  3  0  0  0  0  0  0  0  0  0
    6.6374   -0.4317   -1.5848 O   0  0  0  0  0  0  0  0  0  0  0  0
    5.2460   -0.6174   -1.8588 C   0  0  1  0  0  0  0  0  0  0  0  0
    5.0411   -1.8707   -2.7414 C   0  0  3  0  0  0  0  0  0  0  0  0
    6.2605   -2.8053   -2.6488 C   0  0  3  0  0  0  0  0  0  0  0  0
    5.9227   -4.1000   -3.1627 O   0  0  0  0  0  0  0  0  0  0  0  0
    3.8541   -2.5984   -2.3782 O   0  0  0  0  0  0  0  0  0  0  0  0
    4.5393   -0.6831   -0.6245 O   0  0  0  0  0  0  0  0  0  0  0  0
    3.3266    0.0520   -0.4634 C   0  0  2  0  0  0  0  0  0  0  0  0
    3.3210    1.5075   -0.9608 C   0  0  3  0  0  0  0  0  0  0  0  0
    1.9684    1.9753   -0.9141 O   0  0  0  0  0  0  0  0  0  0  0  0
    1.3160    1.9959    0.3401 C   0  0  1  0  0  0  0  0  0  0  0  0
    1.7952    0.9822    1.4171 C   0  0  3  0  0  0  0  0  0  0  0  0
    2.9671    0.0561    1.0410 C   0  0  3  0  0  0  0  0  0  0  0  0
    4.1138    0.4352    1.8310 O   0  0  0  0  0  0  0  0  0  0  0  0
    2.1065    1.6452    2.6666 O   0  0  0  0  0  0  0  0  0  0  0  0
    1.3895    3.3385    0.8488 O   0  0  0  0  0  0  0  0  0  0  0  0
    0.2805    4.1838    0.4782 C   0  0  2  0  0  0  0  0  0  0  0  0
   -0.1531    4.2147   -0.9972 C   0  0  3  0  0  0  0  0  0  0  0  0
   -1.4286    4.8755   -1.0924 O   0  0  0  0  0  0  0  0  0  0  0  0
   -1.6232    6.0470   -0.3041 C   0  0  1  0  0  0  0  0  0  0  0  0
   -0.3247    6.6915    0.2745 C   0  0  3  0  0  0  0  0  0  0  0  0
    0.5775    5.6210    0.9557 C   0  0  3  0  0  0  0  0  0  0  0  0
    1.9727    5.9124    0.8101 O   0  0  0  0  0  0  0  0  0  0  0  0
    0.3622    7.4458   -0.7398 O   0  0  0  0  0  0  0  0  0  0  0  0
   -2.2837    7.0303   -1.0983 O   0  0  0  0  0  0  0  0  0  0  0  0
   -3.6579    6.8555   -1.4923 C   0  0  2  0  0  0  0  0  0  0  0  0
   -4.6377    6.8964   -0.3143 C   0  0  3  0  0  0  0  0  0  0  0  0
   -4.5303    5.6499    0.3836 O   0  0  0  0  0  0  0  0  0  0  0  0
   -5.1317    4.5768   -0.3420 C   0  0  1  0  0  0  0  0  0  0  0  0
   -4.5076    4.3726   -1.7584 C   0  0  3  0  0  0  0  0  0  0  0  0
   -4.0430    5.6826   -2.4293 C   0  0  3  0  0  0  0  0  0  0  0  0
   -3.0563    5.4587   -3.4340 O   0  0  0  0  0  0  0  0  0  0  0  0
   -3.4324    3.4133   -1.7713 O   0  0  0  0  0  0  0  0  0  0  0  0
   -4.9251    3.3720    0.3783 O   0  0  0  0  0  0  0  0  0  0  0  0
   -5.4346    3.3099    1.7129 C   0  0  2  0  0  0  0  0  0  0  0  0
   -4.5647    2.2462    2.4132 C   0  0  3  0  0  0  0  0  0  0  0  0
   -4.6853    0.9992    1.6994 O   0  0  0  0  0  0  0  0  0  0  0  0
   -6.0016    0.4552    1.6827 C   0  0  1  0  0  0  0  0  0  0  0  0
   -7.0628    1.4478    1.1524 C   0  0  3  0  0  0  0  0  0  0  0  0
   -6.8948    2.8296    1.7820 C   0  0  3  0  0  0  0  0  0  0  0  0
   -7.7781    3.7569    1.1434 O   0  0  0  0  0  0  0  0  0  0  0  0
   -6.9962    1.6134   -0.2805 O   0  0  0  0  0  0  0  0  0  0  0  0
   -6.0834   -0.7050    0.8325 O   0  0  0  0  0  0  0  0  0  0  0  0
   -4.9583   -1.5833    0.9243 C   0  0  2  0  0  0  0  0  0  0  0  0
   -3.8421   -1.2016   -0.0706 C   0  0  3  0  0  0  0  0  0  0  0  0
   -2.8689   -2.2046   -0.3046 O   0  0  0  0  0  0  0  0  0  0  0  0
   -2.8835   -3.4515    0.3607 C   0  0  1  0  0  0  0  0  0  0  0  0
   -4.2102   -3.9737    0.9770 C   0  0  3  0  0  0  0  0  0  0  0  0
   -5.4046   -3.0449    0.7851 C   0  0  3  0  0  0  0  0  0  0  0  0
   -6.0810   -3.3673   -0.4295 O   0  0  0  0  0  0  0  0  0  0  0  0
   -4.5416   -5.3074    0.5681 O   0  0  0  0  0  0  0  0  0  0  0  0
   -2.3594   -4.4018   -0.5754 O   0  0  0  0  0  0  0  0  0  0  0  0
   -1.0642   -4.8903   -0.2452 C   0  0  2  0  0  0  0  0  0  0  0  0
    0.0852   -3.8664   -0.3347 C   0  0  3  0  0  0  0  0  0  0  0  0
    1.2503   -4.3864    0.3433 O   0  0  0  0  0  0  0  0  0  0  0  0
    1.4402   -5.7982    0.3392 C   0  0  2  0  0  0  0  0  0  0  0  0
    2.8388   -6.0771    0.1739 O   0  0  0  0  0  0  0  0  0  0  0  0
    0.7339   -6.5905   -0.7880 C   0  0  3  0  0  0  0  0  0  0  0  0
   -0.7183   -6.1565   -1.0447 C   0  0  3  0  0  0  0  0  0  0  0  0
   -0.9387   -5.9939   -2.4517 O   0  0  0  0  0  0  0  0  0  0  0  0
    1.4814   -6.4818   -2.0213 O   0  0  0  0  0  0  0  0  0  0  0  0
    0.5376   -3.3656   -1.7075 C   0  0  0  0  0  0  0  0  0  0  0  0
   -0.5414   -1.9214   -2.4171 Br  0  0  0  0  0  0  0  0  0  0  0  0
   -4.2450   -0.5478   -1.4079 C   0  0  0  0  0  0  0  0  0  0  0  0
   -4.8652   -1.7938   -2.7678 Br  0  0  0  0  0  0  0  0  0  0  0  0
   -3.0955    2.6713    2.3769 C   0  0  0  0  0  0  0  0  0  0  0  0
   -2.0025    1.4771    3.4719 Br  0  0  0  0  0  0  0  0  0  0  0  0
   -4.3020    8.0473    0.6277 C   0  0  0  0  0  0  0  0  0  0  0  0
   -5.8098    8.3988    1.8174 Br  0  0  0  0  0  0  0  0  0  0  0  0
    0.8544    4.8117   -1.9793 C   0  0  0  0  0  0  0  0  0  0  0  0
    0.5884    4.0221   -3.7541 Br  0  0  0  0  0  0  0  0  0  0  0  0
    4.3467    2.4068   -0.2575 C   0  0  0  0  0  0  0  0  0  0  0  0
    4.9360    3.8419   -1.4480 Br  0  0  0  0  0  0  0  0  0  0  0  0
    7.1408   -1.1526    0.7072 C   0  0  0  0  0  0  0  0  0  0  0  0
    8.1538    0.4774    1.1156 Br  0  0  0  0  0  0  0  0  0  0  0  0
    7.1459   -6.3696    0.0263 O   0  0  0  0  0  0  0  0  0  0  0  0
    5.7426   -6.8393    2.2560 O   0  0  0  0  0  0  0  0  0  0  0  0
    3.6613   -4.8664    4.5251 Br  0  0  0  0  0  0  0  0  0  0  0  0
    3.2895   -2.8602    3.1266 H   0  0  0  0  0  0  0  0  0  0  0  0
    2.0234   -4.0825    2.8297 H   0  0  0  0  0  0  0  0  0  0  0  0
    3.4773   -3.7624    0.8319 H   0  0  0  0  0  0  0  0  0  0  0  0
    3.1553   -6.4032    2.1711 H   0  0  0  0  0  0  0  0  0  0  0  0
    4.8121   -7.5561    0.5972 H   0  0  0  0  0  0  0  0  0  0  0  0
    5.4302   -5.7357   -0.8911 H   0  0  0  0  0  0  0  0  0  0  0  0
    7.0492   -4.1114    0.9344 H   0  0  0  0  0  0  0  0  0  0  0  0
    7.5666   -3.6213   -1.1198 H   0  0  0  0  0  0  0  0  0  0  0  0
    8.3054   -1.4325   -1.0688 H   0  0  0  0  0  0  0  0  0  0  0  0
    4.9607    0.2505   -2.4483 H   0  0  0  0  0  0  0  0  0  0  0  0
    4.9141   -1.5799   -3.7925 H   0  0  0  0  0  0  0  0  0  0  0  0
    7.0764   -2.4164   -3.2716 H   0  0  0  0  0  0  0  0  0  0  0  0
    4.9553   -4.0829   -3.3238 H   0  0  0  0  0  0  0  0  0  0  0  0
    3.9784   -2.7941   -1.4226 H   0  0  0  0  0  0  0  0  0  0  0  0
    2.5349   -0.4998   -0.9878 H   0  0  0  0  0  0  0  0  0  0  0  0
    3.5418    1.5063   -2.0296 H   0  0  0  0  0  0  0  0  0  0  0  0
    0.2675    1.7383    0.1487 H   0  0  0  0  0  0  0  0  0  0  0  0
    0.9370    0.3383    1.6493 H   0  0  0  0  0  0  0  0  0  0  0  0
    2.7381   -0.9691    1.3567 H   0  0  0  0  0  0  0  0  0  0  0  0
    3.7542    0.7705    2.6806 H   0  0  0  0  0  0  0  0  0  0  0  0
    2.1328    2.6045    2.4622 H   0  0  0  0  0  0  0  0  0  0  0  0
   -0.5832    3.8301    1.0599 H   0  0  0  0  0  0  0  0  0  0  0  0
   -0.3620    3.1868   -1.3058 H   0  0  0  0  0  0  0  0  0  0  0  0
   -2.2292    5.7632    0.5603 H   0  0  0  0  0  0  0  0  0  0  0  0
   -0.5929    7.4559    1.0115 H   0  0  0  0  0  0  0  0  0  0  0  0
    0.3859    5.6347    2.0370 H   0  0  0  0  0  0  0  0  0  0  0  0
    2.4501    5.0600    0.7990 H   0  0  0  0  0  0  0  0  0  0  0  0
   -0.3231    7.9609   -1.2255 H   0  0  0  0  0  0  0  0  0  0  0  0
   -3.8373    7.7613   -2.0869 H   0  0  0  0  0  0  0  0  0  0  0  0
   -5.6642    7.0098   -0.6915 H   0  0  0  0  0  0  0  0  0  0  0  0
   -6.2018    4.7788   -0.4499 H   0  0  0  0  0  0  0  0  0  0  0  0
   -5.2707    3.9007   -2.3914 H   0  0  0  0  0  0  0  0  0  0  0  0
   -4.9284    6.0418   -2.9733 H   0  0  0  0  0  0  0  0  0  0  0  0
   -2.5192    4.6940   -3.1322 H   0  0  0  0  0  0  0  0  0  0  0  0
   -2.7246    3.7865   -1.2137 H   0  0  0  0  0  0  0  0  0  0  0  0
   -5.3297    4.2794    2.2137 H   0  0  0  0  0  0  0  0  0  0  0  0
   -4.8902    2.0988    3.4512 H   0  0  0  0  0  0  0  0  0  0  0  0
   -6.2544    0.1499    2.7059 H   0  0  0  0  0  0  0  0  0  0  0  0
   -8.0693    1.0560    1.3328 H   0  0  0  0  0  0  0  0  0  0  0  0
   -7.1945    2.7811    2.8362 H   0  0  0  0  0  0  0  0  0  0  0  0
   -7.8988    3.4044    0.2360 H   0  0  0  0  0  0  0  0  0  0  0  0
   -6.8517    0.7136   -0.6340 H   0  0  0  0  0  0  0  0  0  0  0  0
   -4.5317   -1.5140    1.9378 H   0  0  0  0  0  0  0  0  0  0  0  0
   -3.2808   -0.3969    0.4187 H   0  0  0  0  0  0  0  0  0  0  0  0
   -2.1951   -3.3438    1.2087 H   0  0  0  0  0  0  0  0  0  0  0  0
   -4.0305   -4.0493    2.0590 H   0  0  0  0  0  0  0  0  0  0  0  0
   -6.1485   -3.2655    1.5614 H   0  0  0  0  0  0  0  0  0  0  0  0
   -5.7501   -2.8015   -1.1496 H   0  0  0  0  0  0  0  0  0  0  0  0
   -4.8880   -5.2113   -0.3450 H   0  0  0  0  0  0  0  0  0  0  0  0
   -1.1156   -5.2275    0.8014 H   0  0  0  0  0  0  0  0  0  0  0  0
   -0.1940   -2.9819    0.2483 H   0  0  0  0  0  0  0  0  0  0  0  0
    1.0928   -6.1791    1.3080 H   0  0  0  0  0  0  0  0  0  0  0  0
    0.7597   -7.6560   -0.5314 H   0  0  0  0  0  0  0  0  0  0  0  0
   -1.4030   -6.9520   -0.7296 H   0  0  0  0  0  0  0  0  0  0  0  0
   -0.0881   -6.2237   -2.8868 H   0  0  0  0  0  0  0  0  0  0  0  0
    2.4236   -6.5547   -1.7587 H   0  0  0  0  0  0  0  0  0  0  0  0
    0.6179   -4.1286   -2.4777 H   0  0  0  0  0  0  0  0  0  0  0  0
    1.5284   -2.9164   -1.6043 H   0  0  0  0  0  0  0  0  0  0  0  0
   -3.3804   -0.0708   -1.8813 H   0  0  0  0  0  0  0  0  0  0  0  0
   -5.0226    0.2071   -1.3086 H   0  0  0  0  0  0  0  0  0  0  0  0
   -2.9390    3.6740    2.7853 H   0  0  0  0  0  0  0  0  0  0  0  0
   -2.6627    2.6014    1.3755 H   0  0  0  0  0  0  0  0  0  0  0  0
   -4.1294    8.9820    0.0869 H   0  0  0  0  0  0  0  0  0  0  0  0
   -3.4571    7.8261    1.2845 H   0  0  0  0  0  0  0  0  0  0  0  0
    0.7091    5.8669   -2.1854 H   0  0  0  0  0  0  0  0  0  0  0  0
    1.8909    4.6202   -1.7034 H   0  0  0  0  0  0  0  0  0  0  0  0
    3.9685    2.9145    0.6314 H   0  0  0  0  0  0  0  0  0  0  0  0
    5.2706    1.8768   -0.0180 H   0  0  0  0  0  0  0  0  0  0  0  0
    7.5854   -1.9246    1.3372 H   0  0  0  0  0  0  0  0  0  0  0  0
    6.1296   -0.9474    1.0512 H   0  0  0  0  0  0  0  0  0  0  0  0
    7.3174   -6.7202    0.9263 H   0  0  0  0  0  0  0  0  0  0  0  0
    5.1426   -7.2065    2.9303 H   0  0  0  0  0  0  0  0  0  0  0  0
  1  2  1  0  0  0  0
  1 88  1  0  0  0  0
  1 89  1  0  0  0  0
  1 90  1  0  0  0  0
  2  3  1  0  0  0  0
  2  7  1  0  0  0  0
  2 91  1  0  0  0  0
  3  4  1  0  0  0  0
  3 67  1  0  0  0  0
  3 92  1  1  0  0  0
  4  5  1  0  0  0  0
  4 87  1  0  0  0  0
  4 93  1  0  0  0  0
  5  6  1  0  0  0  0
  5 86  1  0  0  0  0
  5 94  1  0  0  0  0
  6  7  1  0  0  0  0
  6  8  1  0  0  0  0
  6 95  1  1  0  0  0
  8  9  1  0  0  0  0
  9 10  1  0  0  0  0
  9 14  1  0  0  0  0
  9 96  1  1  0  0  0
 10 11  1  0  0  0  0
 10 84  1  0  0  0  0
 10 97  1  0  0  0  0
 11 12  1  0  0  0  0
 12 13  1  0  0  0  0
 12 17  1  0  0  0  0
 12 98  1  6  0  0  0
 13 14  1  0  0  0  0
 13 16  1  0  0  0  0
 13 99  1  0  0  0  0
 14 15  1  0  0  0  0
 14100  1  0  0  0  0
 15101  1  0  0  0  0
 16102  1  0  0  0  0
 17 18  1  0  0  0  0
 18 19  1  0  0  0  0
 18 23  1  0  0  0  0
 18103  1  6  0  0  0
 19 20  1  0  0  0  0
 19 82  1  0  0  0  0
 19104  1  0  0  0  0
 20 21  1  0  0  0  0
 21 22  1  0  0  0  0
 21 26  1  0  0  0  0
 21105  1  6  0  0  0
 22 23  1  0  0  0  0
 22 25  1  0  0  0  0
 22106  1  0  0  0  0
 23 24  1  0  0  0  0
 23107  1  0  0  0  0
 24108  1  0  0  0  0
 25109  1  0  0  0  0
 26 27  1  0  0  0  0
 27 28  1  0  0  0  0
 27 32  1  0  0  0  0
 27110  1  1  0  0  0
 28 29  1  0  0  0  0
 28 80  1  0  0  0  0
 28111  1  0  0  0  0
 29 30  1  0  0  0  0
 30 31  1  0  0  0  0
 30 35  1  0  0  0  0
 30112  1  1  0  0  0
 31 32  1  0  0  0  0
 31 34  1  0  0  0  0
 31113  1  0  0  0  0
 32 33  1  0  0  0  0
 32114  1  0  0  0  0
 33115  1  0  0  0  0
 34116  1  0  0  0  0
 35 36  1  0  0  0  0
 36 37  1  0  0  0  0
 36 41  1  0  0  0  0
 36117  1  6  0  0  0
 37 38  1  0  0  0  0
 37 78  1  0  0  0  0
 37118  1  0  0  0  0
 38 39  1  0  0  0  0
 39 40  1  0  0  0  0
 39 44  1  0  0  0  0
 39119  1  6  0  0  0
 40 41  1  0  0  0  0
 40 43  1  0  0  0  0
 40120  1  0  0  0  0
 41 42  1  0  0  0  0
 41121  1  0  0  0  0
 42122  1  0  0  0  0
 43123  1  0  0  0  0
 44 45  1  0  0  0  0
 45 46  1  0  0  0  0
 45 50  1  0  0  0  0
 45124  1  1  0  0  0
 46 47  1  0  0  0  0
 46 76  1  0  0  0  0
 46125  1  0  0  0  0
 47 48  1  0  0  0  0
 48 49  1  0  0  0  0
 48 53  1  0  0  0  0
 48126  1  1  0  0  0
 49 50  1  0  0  0  0
 49 52  1  0  0  0  0
 49127  1  0  0  0  0
 50 51  1  0  0  0  0
 50128  1  0  0  0  0
 51129  1  0  0  0  0
 52130  1  0  0  0  0
 53 54  1  0  0  0  0
 54 55  1  0  0  0  0
 54 59  1  0  0  0  0
 54131  1  1  0  0  0
 55 56  1  0  0  0  0
 55 74  1  0  0  0  0
 55132  1  0  0  0  0
 56 57  1  0  0  0  0
 57 58  1  0  0  0  0
 57 62  1  0  0  0  0
 57133  1  1  0  0  0
 58 59  1  0  0  0  0
 58 61  1  0  0  0  0
 58134  1  0  0  0  0
 59 60  1  0  0  0  0
 59135  1  0  0  0  0
 60136  1  0  0  0  0
 61137  1  0  0  0  0
 62 63  1  0  0  0  0
 63 64  1  0  0  0  0
 63 69  1  0  0  0  0
 63138  1  1  0  0  0
 64 65  1  0  0  0  0
 64 72  1  0  0  0  0
 64139  1  0  0  0  0
 65 66  1  0  0  0  0
 66 67  1  0  0  0  0
 66 68  1  0  0  0  0
 66140  1  1  0  0  0
 68 69  1  0  0  0  0
 68 71  1  0  0  0  0
 68141  1  0  0  0  0
 69 70  1  0  0  0  0
 69142  1  0  0  0  0
 70143  1  0  0  0  0
 71144  1  0  0  0  0
 72 73  1  0  0  0  0
 72145  1  0  0  0  0
 72146  1  0  0  0  0
 74 75  1  0  0  0  0
 74147  1  0  0  0  0
 74148  1  0  0  0  0
 76 77  1  0  0  0  0
 76149  1  0  0  0  0
 76150  1  0  0  0  0
 78 79  1  0  0  0  0
 78151  1  0  0  0  0
 78152  1  0  0  0  0
 80 81  1  0  0  0  0
 80153  1  0  0  0  0
 80154  1  0  0  0  0
 82 83  1  0  0  0  0
 82155  1  0  0  0  0
 82156  1  0  0  0  0
 84 85  1  0  0  0  0
 84157  1  0  0  0  0
 84158  1  0  0  0  0
 86159  1  0  0  0  0
 87160  1  0  0  0  0
M  END
