
 OpenBabel10072619283D

294301  0  0  1  0  0  0  0  0999 V2000
    3.8448    0.6005    3.0392 C   0  0  0  0  0  0  0  0  0  0  0  0
    2.9015   -0.5708    2.7978 C   0  0  3  0  0  0  0  0  0  0  0  0
    1.6724   -0.2891    3.4309 O   0  0  0  0  0  0  0  0  0  0  0  0
    2.5679   -0.7407    1.4324 O   0  0  0  0  0  0  0  0  0  0  0  0
    3.6502   -0.6859    0.5478 C   0  0  0  0  0  0  0  0  0  0  0  0
    4.6861   -1.7097    0.7713 C   0  0  3  0  0  0  0  0  0  0  0  0
    5.6953   -1.4438   -0.5565 C   0  0  3  0  0  0  0  0  0  0  0  0
    6.4686   -2.6351   -0.3233 C   0  0  3  0  0  0  0  0  0  0  0  0
    5.6617   -3.9445   -0.1630 C   0  0  3  0  0  0  0  0  0  0  0  0
    4.1811   -3.8408    0.0173 C   0  0  3  0  0  0  0  0  0  0  0  0
    4.0900   -3.0200    1.1455 O   0  0  0  0  0  0  0  0  0  0  0  0
    3.4000   -5.0411   -0.2145 O   0  0  0  0  0  0  0  0  0  0  0  0
    3.0678   -5.4467   -1.7065 C   0  0  3  0  0  0  0  0  0  0  0  0
    4.3992   -5.4611   -2.6049 C   0  0  3  0  0  0  0  0  0  0  0  0
    4.7024   -4.1300   -2.3589 O   0  0  0  0  0  0  0  0  0  0  0  0
    3.8777   -3.3409   -3.0252 C   0  0  3  0  0  0  0  0  0  0  0  0
    2.4844   -3.1706   -2.4668 C   0  0  3  0  0  0  0  0  0  0  0  0
    1.9717   -4.5280   -2.1923 C   0  0  3  0  0  0  0  0  0  0  0  0
    0.9357   -4.4503   -1.2357 O   0  0  0  0  0  0  0  0  0  0  0  0
    0.2382   -5.6643   -1.0701 C   0  0  3  0  0  0  0  0  0  0  0  0
   -1.1963   -5.3448   -0.7955 C   0  0  0  0  0  0  0  0  0  0  0  0
    0.2806   -6.4652   -2.2252 O   0  0  0  0  0  0  0  0  0  0  0  0
    1.6728   -2.3057   -3.2395 O   0  0  0  0  0  0  0  0  0  0  0  0
    0.5465   -1.8816   -2.4858 C   0  0  3  0  0  0  0  0  0  0  0  0
    0.0116   -0.6099   -3.0577 C   0  0  0  0  0  0  0  0  0  0  0  0
   -0.4491   -2.8499   -2.6721 O   0  0  0  0  0  0  0  0  0  0  0  0
    4.3143   -3.8854   -4.2515 O   0  0  0  0  0  0  0  0  0  0  0  0
    5.8142   -3.6613   -4.8206 C   0  0  3  0  0  0  0  0  0  0  0  0
    7.5284   -4.5668   -3.9806 C   0  0  3  0  0  0  0  0  0  0  0  0
    7.9541   -3.6794   -2.9474 O   0  0  0  0  0  0  0  0  0  0  0  0
    8.7826   -2.5715   -3.3747 C   0  0  3  0  0  0  0  0  0  0  0  0
    8.0769   -1.2570   -4.4869 C   0  0  3  0  0  0  0  0  0  0  0  0
    6.6317   -1.8294   -5.5860 C   0  0  3  0  0  0  0  0  0  0  0  0
    6.1853   -0.8667   -6.5420 O   0  0  0  0  0  0  0  0  0  0  0  0
    7.2502    0.0253   -6.8690 C   0  0  3  0  0  0  0  0  0  0  0  0
    8.3046   -0.5662   -7.7906 C   0  0  0  0  0  0  0  0  0  0  0  0
    6.7235    1.2041   -7.4137 O   0  0  0  0  0  0  0  0  0  0  0  0
    8.3759    0.1231   -4.1355 O   0  0  0  0  0  0  0  0  0  0  0  0
    9.6373    0.3771   -3.5961 C   0  0  3  0  0  0  0  0  0  0  0  0
   10.5479    0.3480   -4.7923 C   0  0  0  0  0  0  0  0  0  0  0  0
    9.5587    1.6432   -2.9762 O   0  0  0  0  0  0  0  0  0  0  0  0
   10.1935   -2.8162   -3.0938 O   0  0  0  0  0  0  0  0  0  0  0  0
   10.6923   -3.8161   -2.0811 C   0  0  3  0  0  0  0  0  0  0  0  0
    9.9232   -5.0609   -1.9750 C   0  0  3  0  0  0  0  0  0  0  0  0
    9.1343   -4.5788   -0.9985 O   0  0  0  0  0  0  0  0  0  0  0  0
    8.7183   -5.0395    0.2549 C   0  0  3  0  0  0  0  0  0  0  0  0
    9.6598   -3.9322    0.7848 C   0  0  3  0  0  0  0  0  0  0  0  0
   10.9409   -3.5865   -0.3959 C   0  0  3  0  0  0  0  0  0  0  0  0
   11.6277   -2.3716   -0.2398 O   0  0  0  0  0  0  0  0  0  0  0  0
   11.7173   -2.0087    1.1043 C   0  0  3  0  0  0  0  0  0  0  0  0
   12.4762   -3.0721    1.8530 C   0  0  0  0  0  0  0  0  0  0  0  0
   12.4531   -0.8187    1.0775 O   0  0  0  0  0  0  0  0  0  0  0  0
    9.7064   -3.8702    2.1930 O   0  0  0  0  0  0  0  0  0  0  0  0
    9.2349   -5.0795    2.7544 C   0  0  3  0  0  0  0  0  0  0  0  0
   10.2788   -6.1055    2.3454 C   0  0  0  0  0  0  0  0  0  0  0  0
    9.2747   -4.8372    4.1279 O   0  0  0  0  0  0  0  0  0  0  0  0
    8.5403   -6.5149    0.6357 O   0  0  0  0  0  0  0  0  0  0  0  0
    7.7372   -7.8700    0.3338 C   0  0  3  0  0  0  0  0  0  0  0  0
    7.3608   -8.3209   -1.0530 C   0  0  3  0  0  0  0  0  0  0  0  0
    6.0442   -8.2226   -1.5315 O   0  0  0  0  0  0  0  0  0  0  0  0
    4.8130   -8.4430   -0.9837 C   0  0  3  0  0  0  0  0  0  0  0  0
    4.9150   -8.0347    0.4918 C   0  0  3  0  0  0  0  0  0  0  0  0
    6.3614   -8.2728    1.1089 C   0  0  3  0  0  0  0  0  0  0  0  0
    6.4552   -7.8718    2.4627 O   0  0  0  0  0  0  0  0  0  0  0  0
    7.6323   -8.4524    2.9853 C   0  0  3  0  0  0  0  0  0  0  0  0
    7.8711   -8.0718    4.4035 C   0  0  0  0  0  0  0  0  0  0  0  0
    7.5902   -9.8549    2.8306 O   0  0  0  0  0  0  0  0  0  0  0  0
    3.7990   -8.5806    1.1656 O   0  0  0  0  0  0  0  0  0  0  0  0
    3.5295   -8.0085    2.4270 C   0  0  3  0  0  0  0  0  0  0  0  0
    3.3978   -6.4926    2.4649 C   0  0  0  0  0  0  0  0  0  0  0  0
    2.2824   -8.5470    2.8269 O   0  0  0  0  0  0  0  0  0  0  0  0
    4.3589   -9.5901   -1.6636 O   0  0  0  0  0  0  0  0  0  0  0  0
    4.2718   -9.4961   -3.1710 C   0  0  3  0  0  0  0  0  0  0  0  0
    5.0801   -8.5983   -4.0145 C   0  0  3  0  0  0  0  0  0  0  0  0
    4.2825   -7.4745   -3.5895 O   0  0  0  0  0  0  0  0  0  0  0  0
    3.4233   -6.7578   -4.5141 C   0  0  3  0  0  0  0  0  0  0  0  0
    2.2814   -7.6305   -4.0551 C   0  0  3  0  0  0  0  0  0  0  0  0
    2.7626   -9.1534   -3.7877 C   0  0  3  0  0  0  0  0  0  0  0  0
    1.8535   -9.9756   -3.1121 O   0  0  0  0  0  0  0  0  0  0  0  0
    2.3909  -11.2901   -3.1534 C   0  0  3  0  0  0  0  0  0  0  0  0
    1.4084  -12.2174   -2.5615 C   0  0  0  0  0  0  0  0  0  0  0  0
    2.6736  -11.6281   -4.5019 O   0  0  0  0  0  0  0  0  0  0  0  0
    1.1019   -7.2188   -4.7192 O   0  0  0  0  0  0  0  0  0  0  0  0
    1.3716   -6.6337   -5.9900 C   0  0  3  0  0  0  0  0  0  0  0  0
    1.7544   -7.7976   -6.8632 C   0  0  0  0  0  0  0  0  0  0  0  0
    0.2458   -5.9461   -6.4432 O   0  0  0  0  0  0  0  0  0  0  0  0
    3.9316   -6.2763   -5.9885 O   0  0  0  0  0  0  0  0  0  0  0  0
    4.8629   -4.9361   -6.5103 C   0  0  3  0  0  0  0  0  0  0  0  0
    6.7993   -4.6429   -6.2316 C   0  0  3  0  0  0  0  0  0  0  0  0
    7.4036   -3.1868   -4.9914 O   0  0  0  0  0  0  0  0  0  0  0  0
    6.0347   -2.4401   -3.5809 C   0  0  3  0  0  0  0  0  0  0  0  0
    5.6082   -1.2656   -2.2544 O   0  0  0  0  0  0  0  0  0  0  0  0
    4.5852   -1.9698   -4.8743 C   0  0  3  0  0  0  0  0  0  0  0  0
    4.1240   -3.2483   -6.3055 C   0  0  3  0  0  0  0  0  0  0  0  0
    2.8626   -3.2927   -6.8647 O   0  0  0  0  0  0  0  0  0  0  0  0
    2.7759   -2.1920   -7.7204 C   0  0  3  0  0  0  0  0  0  0  0  0
    3.8836   -2.0205   -8.7661 C   0  0  0  0  0  0  0  0  0  0  0  0
    1.5229   -2.2902   -8.3147 O   0  0  0  0  0  0  0  0  0  0  0  0
    4.6891   -0.5949   -4.7671 O   0  0  0  0  0  0  0  0  0  0  0  0
    3.9695    0.1739   -5.6418 C   0  0  3  0  0  0  0  0  0  0  0  0
    2.4974    0.0623   -5.4375 C   0  0  0  0  0  0  0  0  0  0  0  0
    4.4177    1.4285   -5.2368 O   0  0  0  0  0  0  0  0  0  0  0  0
    7.5306   -4.4929   -7.5062 C   0  0  0  0  0  0  0  0  0  0  0  0
    7.3754   -5.4834   -8.5287 O   0  0  0  0  0  0  0  0  0  0  0  0
    8.3441   -5.0679   -9.4984 C   0  0  3  0  0  0  0  0  0  0  0  0
    8.6145   -5.9439  -10.6843 C   0  0  0  0  0  0  0  0  0  0  0  0
    7.8644   -3.8339   -9.9899 O   0  0  0  0  0  0  0  0  0  0  0  0
    5.0421   -8.9523   -5.5439 C   0  0  0  0  0  0  0  0  0  0  0  0
    6.2066   -9.2868   -6.1981 O   0  0  0  0  0  0  0  0  0  0  0  0
    6.6132   -9.1894   -7.5385 C   0  0  3  0  0  0  0  0  0  0  0  0
    5.5551   -8.6806   -8.4619 C   0  0  0  0  0  0  0  0  0  0  0  0
    7.8114   -8.4099   -7.6855 O   0  0  0  0  0  0  0  0  0  0  0  0
    7.5530   -9.6200   -1.6396 C   0  0  0  0  0  0  0  0  0  0  0  0
    8.6100  -10.3066   -1.1104 O   0  0  0  0  0  0  0  0  0  0  0  0
    8.9997  -11.2289   -2.0679 C   0  0  3  0  0  0  0  0  0  0  0  0
   10.3522  -11.7272   -1.6832 C   0  0  0  0  0  0  0  0  0  0  0  0
    8.0071  -12.1948   -1.9084 O   0  0  0  0  0  0  0  0  0  0  0  0
   10.7390   -6.2144   -1.7095 C   0  0  0  0  0  0  0  0  0  0  0  0
    9.8468   -7.2634   -1.7390 O   0  0  0  0  0  0  0  0  0  0  0  0
   10.5277   -8.4518   -1.8176 C   0  0  3  0  0  0  0  0  0  0  0  0
   11.2733   -8.6566   -3.1144 C   0  0  0  0  0  0  0  0  0  0  0  0
   11.2353   -8.6825   -0.6405 O   0  0  0  0  0  0  0  0  0  0  0  0
    9.0071   -4.6868   -4.9366 C   0  0  0  0  0  0  0  0  0  0  0  0
    9.7367   -3.5958   -5.4475 O   0  0  0  0  0  0  0  0  0  0  0  0
   10.8377   -4.1232   -6.1679 C   0  0  3  0  0  0  0  0  0  0  0  0
   11.7809   -3.0183   -6.4854 C   0  0  0  0  0  0  0  0  0  0  0  0
   11.5630   -5.1400   -5.5045 O   0  0  0  0  0  0  0  0  0  0  0  0
    5.5626   -6.1079   -4.1632 C   0  0  0  0  0  0  0  0  0  0  0  0
    7.0405   -6.6020   -4.5964 O   0  0  0  0  0  0  0  0  0  0  0  0
    8.1765   -7.4614   -4.2891 C   0  0  3  0  0  0  0  0  0  0  0  0
    8.1648   -8.8489   -4.8217 C   0  0  0  0  0  0  0  0  0  0  0  0
    9.3065   -7.0180   -5.0009 O   0  0  0  0  0  0  0  0  0  0  0  0
    6.0505   -5.1826    0.2282 O   0  0  0  0  0  0  0  0  0  0  0  0
    6.5519   -5.8660   -0.8530 C   0  0  3  0  0  0  0  0  0  0  0  0
    6.4268   -6.1688   -2.2340 C   0  0  0  0  0  0  0  0  0  0  0  0
    7.5681   -5.2914   -1.4516 O   0  0  0  0  0  0  0  0  0  0  0  0
    7.8191   -2.4531   -0.3615 O   0  0  0  0  0  0  0  0  0  0  0  0
    8.4300   -1.2002   -0.6699 C   0  0  3  0  0  0  0  0  0  0  0  0
    9.0609   -0.3632    0.3658 C   0  0  0  0  0  0  0  0  0  0  0  0
    9.6368   -1.6762   -1.1669 O   0  0  0  0  0  0  0  0  0  0  0  0
    3.9353    0.8228    4.1030 H   0  0  0  0  0  0  0  0  0  0  0  0
    3.4657    1.4936    2.5307 H   0  0  0  0  0  0  0  0  0  0  0  0
    4.8490    0.4102    2.6455 H   0  0  0  0  0  0  0  0  0  0  0  0
    3.3075   -1.4953    3.2217 H   0  0  0  0  0  0  0  0  0  0  0  0
    1.2478    0.3249    2.8080 H   0  0  0  0  0  0  0  0  0  0  0  0
    4.1700    0.2714    0.5855 H   0  0  0  0  0  0  0  0  0  0  0  0
    3.2992   -0.8440   -0.4686 H   0  0  0  0  0  0  0  0  0  0  0  0
    5.2828   -1.5264    1.6891 H   0  0  0  0  0  0  0  0  0  0  0  0
    6.2047   -0.5088   -0.2772 H   0  0  0  0  0  0  0  0  0  0  0  0
    6.4022   -2.7500   -1.3289 H   0  0  0  0  0  0  0  0  0  0  0  0
    5.8571   -4.1463   -1.1490 H   0  0  0  0  0  0  0  0  0  0  0  0
    3.7728   -3.1597   -0.6448 H   0  0  0  0  0  0  0  0  0  0  0  0
    2.6812   -6.4371   -1.5375 H   0  0  0  0  0  0  0  0  0  0  0  0
    4.6633   -6.0058   -1.7192 H   0  0  0  0  0  0  0  0  0  0  0  0
    4.1586   -2.3391   -2.8084 H   0  0  0  0  0  0  0  0  0  0  0  0
    2.5401   -2.6132   -1.5352 H   0  0  0  0  0  0  0  0  0  0  0  0
    1.5950   -4.8459   -3.1526 H   0  0  0  0  0  0  0  0  0  0  0  0
    0.6818   -6.2252   -0.2433 H   0  0  0  0  0  0  0  0  0  0  0  0
   -1.6270   -4.8124   -1.6481 H   0  0  0  0  0  0  0  0  0  0  0  0
   -1.2734   -4.7031    0.0789 H   0  0  0  0  0  0  0  0  0  0  0  0
   -1.7624   -6.2664   -0.6590 H   0  0  0  0  0  0  0  0  0  0  0  0
   -0.1693   -5.9697   -2.9319 H   0  0  0  0  0  0  0  0  0  0  0  0
    0.7705   -1.7101   -1.4231 H   0  0  0  0  0  0  0  0  0  0  0  0
   -0.3778   -0.7978   -4.0644 H   0  0  0  0  0  0  0  0  0  0  0  0
    0.8017    0.1334   -3.1289 H   0  0  0  0  0  0  0  0  0  0  0  0
   -0.7924   -0.2273   -2.4107 H   0  0  0  0  0  0  0  0  0  0  0  0
   -0.4476   -2.9739   -3.6344 H   0  0  0  0  0  0  0  0  0  0  0  0
    5.7159   -3.5203   -5.8148 H   0  0  0  0  0  0  0  0  0  0  0  0
    7.7299   -5.4678   -3.5152 H   0  0  0  0  0  0  0  0  0  0  0  0
    8.4863   -1.9757   -2.5863 H   0  0  0  0  0  0  0  0  0  0  0  0
    7.2115   -0.8851   -3.9575 H   0  0  0  0  0  0  0  0  0  0  0  0
    7.2613   -2.2360   -6.3951 H   0  0  0  0  0  0  0  0  0  0  0  0
    7.7326    0.3597   -5.9822 H   0  0  0  0  0  0  0  0  0  0  0  0
    7.8616   -0.7058   -8.7787 H   0  0  0  0  0  0  0  0  0  0  0  0
    8.7270   -1.5232   -7.4643 H   0  0  0  0  0  0  0  0  0  0  0  0
    9.1615    0.1023   -7.8705 H   0  0  0  0  0  0  0  0  0  0  0  0
    6.1380    0.9112   -8.1204 H   0  0  0  0  0  0  0  0  0  0  0  0
    9.9328   -0.3208   -2.8173 H   0  0  0  0  0  0  0  0  0  0  0  0
   10.0861    0.8558   -5.6410 H   0  0  0  0  0  0  0  0  0  0  0  0
   10.6755   -0.6761   -5.1275 H   0  0  0  0  0  0  0  0  0  0  0  0
   11.5110    0.8078   -4.5930 H   0  0  0  0  0  0  0  0  0  0  0  0
    8.9920    2.1507   -3.5774 H   0  0  0  0  0  0  0  0  0  0  0  0
   11.6787   -4.0227   -2.4712 H   0  0  0  0  0  0  0  0  0  0  0  0
    9.3017   -5.3561   -2.7606 H   0  0  0  0  0  0  0  0  0  0  0  0
    7.8142   -4.5474    0.6075 H   0  0  0  0  0  0  0  0  0  0  0  0
    9.2293   -2.9549    0.7089 H   0  0  0  0  0  0  0  0  0  0  0  0
   11.6278   -4.3824   -0.1482 H   0  0  0  0  0  0  0  0  0  0  0  0
   10.7313   -1.8031    1.5218 H   0  0  0  0  0  0  0  0  0  0  0  0
   13.4120   -3.2983    1.3388 H   0  0  0  0  0  0  0  0  0  0  0  0
   11.9494   -4.0178    1.8689 H   0  0  0  0  0  0  0  0  0  0  0  0
   12.6423   -2.7815    2.8821 H   0  0  0  0  0  0  0  0  0  0  0  0
   12.8791   -0.8993    0.2076 H   0  0  0  0  0  0  0  0  0  0  0  0
    8.1702   -5.2759    2.5061 H   0  0  0  0  0  0  0  0  0  0  0  0
   11.2565   -5.7063    2.5545 H   0  0  0  0  0  0  0  0  0  0  0  0
   10.3869   -6.2615    1.2713 H   0  0  0  0  0  0  0  0  0  0  0  0
   10.1405   -7.0797    2.7787 H   0  0  0  0  0  0  0  0  0  0  0  0
    9.3631   -3.8697    4.1211 H   0  0  0  0  0  0  0  0  0  0  0  0
    8.5258   -8.5430    0.6301 H   0  0  0  0  0  0  0  0  0  0  0  0
    7.9451   -7.6272   -1.6112 H   0  0  0  0  0  0  0  0  0  0  0  0
    4.0516   -7.7572   -1.3278 H   0  0  0  0  0  0  0  0  0  0  0  0
    4.7510   -6.9586    0.4974 H   0  0  0  0  0  0  0  0  0  0  0  0
    6.3493   -9.3640    1.0549 H   0  0  0  0  0  0  0  0  0  0  0  0
    8.4896   -8.0795    2.4474 H   0  0  0  0  0  0  0  0  0  0  0  0
    7.0454   -8.4042    5.0292 H   0  0  0  0  0  0  0  0  0  0  0  0
    7.9690   -6.9899    4.4868 H   0  0  0  0  0  0  0  0  0  0  0  0
    8.8031   -8.5348    4.7313 H   0  0  0  0  0  0  0  0  0  0  0  0
    6.7050  -10.1053    3.1428 H   0  0  0  0  0  0  0  0  0  0  0  0
    4.2831   -8.3620    3.1275 H   0  0  0  0  0  0  0  0  0  0  0  0
    2.6327   -6.1504    1.7647 H   0  0  0  0  0  0  0  0  0  0  0  0
    4.3265   -5.9870    2.2063 H   0  0  0  0  0  0  0  0  0  0  0  0
    3.1018   -6.1424    3.4550 H   0  0  0  0  0  0  0  0  0  0  0  0
    1.6524   -8.1834    2.1824 H   0  0  0  0  0  0  0  0  0  0  0  0
    4.6814  -10.4600   -3.4662 H   0  0  0  0  0  0  0  0  0  0  0  0
    6.0977   -8.4447   -3.6873 H   0  0  0  0  0  0  0  0  0  0  0  0
    3.1290   -5.7864   -4.1600 H   0  0  0  0  0  0  0  0  0  0  0  0
    2.0979   -7.3827   -3.0163 H   0  0  0  0  0  0  0  0  0  0  0  0
    2.7630   -9.4656   -4.8189 H   0  0  0  0  0  0  0  0  0  0  0  0
    3.2950  -11.4156   -2.5504 H   0  0  0  0  0  0  0  0  0  0  0  0
    0.4373  -12.0357   -3.0173 H   0  0  0  0  0  0  0  0  0  0  0  0
    1.3590  -12.0146   -1.4909 H   0  0  0  0  0  0  0  0  0  0  0  0
    1.7498  -13.2349   -2.7354 H   0  0  0  0  0  0  0  0  0  0  0  0
    1.9230  -11.2465   -4.9899 H   0  0  0  0  0  0  0  0  0  0  0  0
    2.1013   -5.8253   -5.9534 H   0  0  0  0  0  0  0  0  0  0  0  0
    1.0124   -8.5781   -6.7212 H   0  0  0  0  0  0  0  0  0  0  0  0
    2.6594   -8.2798   -6.5218 H   0  0  0  0  0  0  0  0  0  0  0  0
    1.9100   -7.5441   -7.9019 H   0  0  0  0  0  0  0  0  0  0  0  0
   -0.4293   -6.6308   -6.4763 H   0  0  0  0  0  0  0  0  0  0  0  0
    4.8322   -5.1902   -7.5752 H   0  0  0  0  0  0  0  0  0  0  0  0
    7.1160   -5.5982   -5.9617 H   0  0  0  0  0  0  0  0  0  0  0  0
    6.8768   -2.1022   -3.1161 H   0  0  0  0  0  0  0  0  0  0  0  0
    3.5840   -2.0129   -4.4939 H   0  0  0  0  0  0  0  0  0  0  0  0
    4.8147   -2.8912   -7.0375 H   0  0  0  0  0  0  0  0  0  0  0  0
    2.7935   -1.3391   -7.0872 H   0  0  0  0  0  0  0  0  0  0  0  0
    3.9578   -2.9037   -9.4014 H   0  0  0  0  0  0  0  0  0  0  0  0
    4.8985   -1.8551   -8.3839 H   0  0  0  0  0  0  0  0  0  0  0  0
    3.7002   -1.1158   -9.3311 H   0  0  0  0  0  0  0  0  0  0  0  0
    1.3323   -3.2387   -8.2203 H   0  0  0  0  0  0  0  0  0  0  0  0
    4.2218   -0.0567   -6.6749 H   0  0  0  0  0  0  0  0  0  0  0  0
    2.1772    0.6831   -4.6145 H   0  0  0  0  0  0  0  0  0  0  0  0
    2.1398   -0.9417   -5.2383 H   0  0  0  0  0  0  0  0  0  0  0  0
    2.0103    0.3963   -6.3468 H   0  0  0  0  0  0  0  0  0  0  0  0
    4.8331    1.1804   -4.3909 H   0  0  0  0  0  0  0  0  0  0  0  0
    8.5506   -4.6002   -7.2277 H   0  0  0  0  0  0  0  0  0  0  0  0
    7.4039   -3.4909   -7.8606 H   0  0  0  0  0  0  0  0  0  0  0  0
    9.3144   -4.9418   -9.0026 H   0  0  0  0  0  0  0  0  0  0  0  0
    7.7014   -6.1848  -11.2306 H   0  0  0  0  0  0  0  0  0  0  0  0
    9.1386   -6.8589  -10.4089 H   0  0  0  0  0  0  0  0  0  0  0  0
    9.2735   -5.3887  -11.3622 H   0  0  0  0  0  0  0  0  0  0  0  0
    6.9144   -4.0113  -10.1109 H   0  0  0  0  0  0  0  0  0  0  0  0
    4.4919   -8.2882   -6.1529 H   0  0  0  0  0  0  0  0  0  0  0  0
    4.5531   -9.8994   -5.5595 H   0  0  0  0  0  0  0  0  0  0  0  0
    6.9215  -10.2048   -7.8009 H   0  0  0  0  0  0  0  0  0  0  0  0
    5.4665   -7.5973   -8.3458 H   0  0  0  0  0  0  0  0  0  0  0  0
    4.5972   -9.1438   -8.2289 H   0  0  0  0  0  0  0  0  0  0  0  0
    5.8334   -8.8959   -9.4944 H   0  0  0  0  0  0  0  0  0  0  0  0
    7.5819   -7.5348   -8.0368 H   0  0  0  0  0  0  0  0  0  0  0  0
    7.7577   -9.3114   -2.6431 H   0  0  0  0  0  0  0  0  0  0  0  0
    6.6623  -10.2366   -1.7263 H   0  0  0  0  0  0  0  0  0  0  0  0
    9.0231  -10.7997   -3.0757 H   0  0  0  0  0  0  0  0  0  0  0  0
   10.4027  -11.8851   -0.6045 H   0  0  0  0  0  0  0  0  0  0  0  0
   11.1280  -10.9987   -1.9191 H   0  0  0  0  0  0  0  0  0  0  0  0
   10.5527  -12.6444   -2.2220 H   0  0  0  0  0  0  0  0  0  0  0  0
    7.6780  -11.9318   -1.0210 H   0  0  0  0  0  0  0  0  0  0  0  0
   11.2360   -6.2012   -0.7579 H   0  0  0  0  0  0  0  0  0  0  0  0
   11.4317   -6.2590   -2.5341 H   0  0  0  0  0  0  0  0  0  0  0  0
    9.7591   -9.1487   -1.7902 H   0  0  0  0  0  0  0  0  0  0  0  0
   11.6782   -7.7475   -3.5588 H   0  0  0  0  0  0  0  0  0  0  0  0
   10.5849   -9.0217   -3.8794 H   0  0  0  0  0  0  0  0  0  0  0  0
   12.0835   -9.3718   -2.9790 H   0  0  0  0  0  0  0  0  0  0  0  0
   11.7637   -7.8943   -0.4858 H   0  0  0  0  0  0  0  0  0  0  0  0
    8.8415   -5.3394   -5.7629 H   0  0  0  0  0  0  0  0  0  0  0  0
    9.7386   -5.1709   -4.3264 H   0  0  0  0  0  0  0  0  0  0  0  0
   10.4260   -4.5595   -7.0694 H   0  0  0  0  0  0  0  0  0  0  0  0
   12.4360   -2.8372   -5.6270 H   0  0  0  0  0  0  0  0  0  0  0  0
   11.2382   -2.1060   -6.7241 H   0  0  0  0  0  0  0  0  0  0  0  0
   12.3945   -3.3273   -7.3301 H   0  0  0  0  0  0  0  0  0  0  0  0
   11.7881   -4.7796   -4.6339 H   0  0  0  0  0  0  0  0  0  0  0  0
    5.3851   -5.3706   -4.7989 H   0  0  0  0  0  0  0  0  0  0  0  0
    5.2976   -6.8271   -4.8631 H   0  0  0  0  0  0  0  0  0  0  0  0
    8.4672   -7.3718   -3.2842 H   0  0  0  0  0  0  0  0  0  0  0  0
    8.8509   -9.3004   -5.5880 H   0  0  0  0  0  0  0  0  0  0  0  0
    7.3314   -8.5042   -5.2939 H   0  0  0  0  0  0  0  0  0  0  0  0
    7.7500   -9.6693   -4.2858 H   0  0  0  0  0  0  0  0  0  0  0  0
    9.0041   -7.0266   -5.9296 H   0  0  0  0  0  0  0  0  0  0  0  0
    6.5894   -6.7210   -0.3655 H   0  0  0  0  0  0  0  0  0  0  0  0
    6.3421   -5.2010   -2.7698 H   0  0  0  0  0  0  0  0  0  0  0  0
    5.6735   -6.8691   -2.4908 H   0  0  0  0  0  0  0  0  0  0  0  0
    7.1019   -6.7995   -2.6920 H   0  0  0  0  0  0  0  0  0  0  0  0
    7.6066   -4.3316   -1.6495 H   0  0  0  0  0  0  0  0  0  0  0  0
    7.9000   -0.6326   -1.4354 H   0  0  0  0  0  0  0  0  0  0  0  0
    8.9891   -0.8110    1.3493 H   0  0  0  0  0  0  0  0  0  0  0  0
    8.6825    0.6450    0.2775 H   0  0  0  0  0  0  0  0  0  0  0  0
   10.1362   -0.2563    0.1320 H   0  0  0  0  0  0  0  0  0  0  0  0
    9.3672   -2.6049   -1.1402 H   0  0  0  0  0  0  0  0  0  0  0  0
  1  2  1  0  0  0  0
  1141  1  0  0  0  0
  1142  1  0  0  0  0
  1143  1  0  0  0  0
  2  3  1  0  0  0  0
  2  4  1  0  0  0  0
  2144  1  0  0  0  0
  3145  1  0  0  0  0
  4  5  1  0  0  0  0
  5  6  1  0  0  0  0
  5146  1  0  0  0  0
  5147  1  0  0  0  0
  6  7  1  0  0  0  0
  6 11  1  0  0  0  0
  6148  1  0  0  0  0
  7  8  1  0  0  0  0
  7 92  1  0  0  0  0
  7149  1  0  0  0  0
  8  9  1  0  0  0  0
  8137  1  0  0  0  0
  8150  1  0  0  0  0
  9 10  1  0  0  0  0
  9133  1  0  0  0  0
  9151  1  0  0  0  0
 10 11  1  0  0  0  0
 10 12  1  0  0  0  0
 10152  1  0  0  0  0
 12 13  1  0  0  0  0
 13 14  1  0  0  0  0
 13 18  1  0  0  0  0
 13153  1  0  0  0  0
 14 15  1  0  0  0  0
 14128  1  0  0  0  0
 14154  1  0  0  0  0
 15 16  1  0  0  0  0
 16 17  1  0  0  0  0
 16 27  1  0  0  0  0
 16155  1  0  0  0  0
 17 18  1  0  0  0  0
 17 23  1  0  0  0  0
 17156  1  0  0  0  0
 18 19  1  0  0  0  0
 18157  1  0  0  0  0
 19 20  1  0  0  0  0
 20 21  1  0  0  0  0
 20 22  1  0  0  0  0
 20158  1  0  0  0  0
 21159  1  0  0  0  0
 21160  1  0  0  0  0
 21161  1  0  0  0  0
 22162  1  0  0  0  0
 23 24  1  0  0  0  0
 24 25  1  0  0  0  0
 24 26  1  0  0  0  0
 24163  1  0  0  0  0
 25164  1  0  0  0  0
 25165  1  0  0  0  0
 25166  1  0  0  0  0
 26167  1  0  0  0  0
 27 28  1  0  0  0  0
 28 29  1  0  0  0  0
 28 33  1  0  0  0  0
 28168  1  0  0  0  0
 29 30  1  0  0  0  0
 29123  1  0  0  0  0
 29169  1  0  0  0  0
 30 31  1  0  0  0  0
 31 32  1  0  0  0  0
 31 42  1  0  0  0  0
 31170  1  0  0  0  0
 32 33  1  0  0  0  0
 32 38  1  0  0  0  0
 32171  1  0  0  0  0
 33 34  1  0  0  0  0
 33172  1  0  0  0  0
 34 35  1  0  0  0  0
 35 36  1  0  0  0  0
 35 37  1  0  0  0  0
 35173  1  0  0  0  0
 36174  1  0  0  0  0
 36175  1  0  0  0  0
 36176  1  0  0  0  0
 37177  1  0  0  0  0
 38 39  1  0  0  0  0
 39 40  1  0  0  0  0
 39 41  1  0  0  0  0
 39178  1  0  0  0  0
 40179  1  0  0  0  0
 40180  1  0  0  0  0
 40181  1  0  0  0  0
 41182  1  0  0  0  0
 42 43  1  0  0  0  0
 43 44  1  0  0  0  0
 43 48  1  0  0  0  0
 43183  1  0  0  0  0
 44 45  1  0  0  0  0
 44118  1  0  0  0  0
 44184  1  0  0  0  0
 45 46  1  0  0  0  0
 46 47  1  0  0  0  0
 46 57  1  0  0  0  0
 46185  1  0  0  0  0
 47 48  1  0  0  0  0
 47 53  1  0  0  0  0
 47186  1  0  0  0  0
 48 49  1  0  0  0  0
 48187  1  0  0  0  0
 49 50  1  0  0  0  0
 50 51  1  0  0  0  0
 50 52  1  0  0  0  0
 50188  1  0  0  0  0
 51189  1  0  0  0  0
 51190  1  0  0  0  0
 51191  1  0  0  0  0
 52192  1  0  0  0  0
 53 54  1  0  0  0  0
 54 55  1  0  0  0  0
 54 56  1  0  0  0  0
 54193  1  0  0  0  0
 55194  1  0  0  0  0
 55195  1  0  0  0  0
 55196  1  0  0  0  0
 56197  1  0  0  0  0
 57 58  1  0  0  0  0
 58 59  1  0  0  0  0
 58 63  1  0  0  0  0
 58198  1  0  0  0  0
 59 60  1  0  0  0  0
 59113  1  0  0  0  0
 59199  1  0  0  0  0
 60 61  1  0  0  0  0
 61 62  1  0  0  0  0
 61 72  1  0  0  0  0
 61200  1  0  0  0  0
 62 63  1  0  0  0  0
 62 68  1  0  0  0  0
 62201  1  0  0  0  0
 63 64  1  0  0  0  0
 63202  1  0  0  0  0
 64 65  1  0  0  0  0
 65 66  1  0  0  0  0
 65 67  1  0  0  0  0
 65203  1  0  0  0  0
 66204  1  0  0  0  0
 66205  1  0  0  0  0
 66206  1  0  0  0  0
 67207  1  0  0  0  0
 68 69  1  0  0  0  0
 69 70  1  0  0  0  0
 69 71  1  0  0  0  0
 69208  1  0  0  0  0
 70209  1  0  0  0  0
 70210  1  0  0  0  0
 70211  1  0  0  0  0
 71212  1  0  0  0  0
 72 73  1  0  0  0  0
 73 74  1  0  0  0  0
 73 78  1  0  0  0  0
 73213  1  0  0  0  0
 74 75  1  0  0  0  0
 74108  1  0  0  0  0
 74214  1  0  0  0  0
 75 76  1  0  0  0  0
 76 77  1  0  0  0  0
 76 87  1  0  0  0  0
 76215  1  0  0  0  0
 77 78  1  0  0  0  0
 77 83  1  0  0  0  0
 77216  1  0  0  0  0
 78 79  1  0  0  0  0
 78217  1  0  0  0  0
 79 80  1  0  0  0  0
 80 81  1  0  0  0  0
 80 82  1  0  0  0  0
 80218  1  0  0  0  0
 81219  1  0  0  0  0
 81220  1  0  0  0  0
 81221  1  0  0  0  0
 82222  1  0  0  0  0
 83 84  1  0  0  0  0
 84 85  1  0  0  0  0
 84 86  1  0  0  0  0
 84223  1  0  0  0  0
 85224  1  0  0  0  0
 85225  1  0  0  0  0
 85226  1  0  0  0  0
 86227  1  0  0  0  0
 87 88  1  0  0  0  0
 88 89  1  0  0  0  0
 88 94  1  0  0  0  0
 88228  1  0  0  0  0
 89 90  1  0  0  0  0
 89103  1  0  0  0  0
 89229  1  0  0  0  0
 90 91  1  0  0  0  0
 91 92  1  0  0  0  0
 91 93  1  0  0  0  0
 91230  1  0  0  0  0
 93 94  1  0  0  0  0
 93 99  1  0  0  0  0
 93231  1  0  0  0  0
 94 95  1  0  0  0  0
 94232  1  0  0  0  0
 95 96  1  0  0  0  0
 96 97  1  0  0  0  0
 96 98  1  0  0  0  0
 96233  1  0  0  0  0
 97234  1  0  0  0  0
 97235  1  0  0  0  0
 97236  1  0  0  0  0
 98237  1  0  0  0  0
 99100  1  0  0  0  0
100101  1  0  0  0  0
100102  1  0  0  0  0
100238  1  0  0  0  0
101239  1  0  0  0  0
101240  1  0  0  0  0
101241  1  0  0  0  0
102242  1  0  0  0  0
103104  1  0  0  0  0
103243  1  0  0  0  0
103244  1  0  0  0  0
104105  1  0  0  0  0
105106  1  0  0  0  0
105107  1  0  0  0  0
105245  1  0  0  0  0
106246  1  0  0  0  0
106247  1  0  0  0  0
106248  1  0  0  0  0
107249  1  0  0  0  0
108109  1  0  0  0  0
108250  1  0  0  0  0
108251  1  0  0  0  0
109110  1  0  0  0  0
110111  1  0  0  0  0
110112  1  0  0  0  0
110252  1  0  0  0  0
111253  1  0  0  0  0
111254  1  0  0  0  0
111255  1  0  0  0  0
112256  1  0  0  0  0
113114  1  0  0  0  0
113257  1  0  0  0  0
113258  1  0  0  0  0
114115  1  0  0  0  0
115116  1  0  0  0  0
115117  1  0  0  0  0
115259  1  0  0  0  0
116260  1  0  0  0  0
116261  1  0  0  0  0
116262  1  0  0  0  0
117263  1  0  0  0  0
118119  1  0  0  0  0
118264  1  0  0  0  0
118265  1  0  0  0  0
119120  1  0  0  0  0
120121  1  0  0  0  0
120122  1  0  0  0  0
120266  1  0  0  0  0
121267  1  0  0  0  0
121268  1  0  0  0  0
121269  1  0  0  0  0
122270  1  0  0  0  0
123124  1  0  0  0  0
123271  1  0  0  0  0
123272  1  0  0  0  0
124125  1  0  0  0  0
125126  1  0  0  0  0
125127  1  0  0  0  0
125273  1  0  0  0  0
126274  1  0  0  0  0
126275  1  0  0  0  0
126276  1  0  0  0  0
127277  1  0  0  0  0
128129  1  0  0  0  0
128278  1  0  0  0  0
128279  1  0  0  0  0
129130  1  0  0  0  0
130131  1  0  0  0  0
130132  1  0  0  0  0
130280  1  0  0  0  0
131281  1  0  0  0  0
131282  1  0  0  0  0
131283  1  0  0  0  0
132284  1  0  0  0  0
133134  1  0  0  0  0
134135  1  0  0  0  0
134136  1  0  0  0  0
134285  1  0  0  0  0
135286  1  0  0  0  0
135287  1  0  0  0  0
135288  1  0  0  0  0
136289  1  0  0  0  0
137138  1  0  0  0  0
138139  1  0  0  0  0
138140  1  0  0  0  0
138290  1  0  0  0  0
139291  1  0  0  0  0
139292  1  0  0  0  0
139293  1  0  0  0  0
140294  1  0  0  0  0
M  END
