
 OpenBabel10072620153D

210220  0  0  1  0  0  0  0  0999 V2000
  198.3727  202.6627    4.0819 C   0  0  0  0  0  0  0  0  0  0  0  0
  198.5355  201.2991    3.3871 C   0  0  2  0  0  0  0  0  0  0  0  0
  197.1815  200.6846    2.9624 C   0  0  2  0  0  0  0  0  0  0  0  0
  197.2023  199.1635    3.0552 C   0  0  1  0  0  0  0  0  0  0  0  0
  197.5494  198.7124    4.4735 C   0  0  2  0  0  0  0  0  0  0  0  0
  198.6675  199.5921    5.1051 C   0  0  2  0  0  0  0  0  0  0  0  0
  199.3537  200.4029    4.1452 O   0  0  0  0  0  0  0  0  0  0  0  0
  199.6449  198.7609    5.7198 O   0  0  0  0  0  0  0  0  0  0  0  0
  199.9990  199.0939    7.0693 C   0  0  2  0  0  0  0  0  0  0  0  0
  201.4628  199.5784    7.0713 C   0  0  2  0  0  0  0  0  0  0  0  0
  202.3103  198.8480    7.9842 O   0  0  0  0  0  0  0  0  0  0  0  0
  201.7861  198.7207    9.2980 C   0  0  1  0  0  0  0  0  0  0  0  0
  200.4485  197.9388    9.2947 C   0  0  1  0  0  0  0  0  0  0  0  0
  199.8358  197.8231    7.8978 C   0  0  1  0  0  0  0  0  0  0  0  0
  198.4292  197.5330    8.0425 O   0  0  0  0  0  0  0  0  0  0  0  0
  200.5882  196.5936    9.8045 O   0  0  0  0  0  0  0  0  0  0  0  0
  202.6740  198.0599   10.2142 O   0  0  0  0  0  0  0  0  0  0  0  0
  204.0939  198.3015   10.1243 C   0  0  2  0  0  0  0  0  0  0  0  0
  204.5175  199.7635    9.8321 C   0  0  2  0  0  0  0  0  0  0  0  0
  205.5845  199.8433    8.8663 O   0  0  0  0  0  0  0  0  0  0  0  0
  206.6894  198.9877    9.1394 C   0  0  1  0  0  0  0  0  0  0  0  0
  206.2766  197.4988    9.1190 C   0  0  1  0  0  0  0  0  0  0  0  0
  204.7531  197.3344    9.1239 C   0  0  1  0  0  0  0  0  0  0  0  0
  204.4480  195.9640    9.4395 O   0  0  0  0  0  0  0  0  0  0  0  0
  206.7968  196.8219    7.9518 O   0  0  0  0  0  0  0  0  0  0  0  0
  207.7287  199.1538    8.1572 O   0  0  0  0  0  0  0  0  0  0  0  0
  208.1041  200.5195    7.9353 C   0  0  2  0  0  0  0  0  0  0  0  0
  208.8946  200.6013    6.6085 C   0  0  2  0  0  0  0  0  0  0  0  0
  209.2925  201.9411    6.2541 O   0  0  0  0  0  0  0  0  0  0  0  0
  209.1016  202.8964    7.2911 C   0  0  1  0  0  0  0  0  0  0  0  0
  209.7008  202.3746    8.6212 C   0  0  1  0  0  0  0  0  0  0  0  0
  208.9953  201.0798    9.0669 C   0  0  1  0  0  0  0  0  0  0  0  0
  208.2122  201.3452   10.2530 O   0  0  0  0  0  0  0  0  0  0  0  0
  211.1042  202.0934    8.4571 O   0  0  0  0  0  0  0  0  0  0  0  0
  209.7227  204.1499    7.0176 O   0  0  0  0  0  0  0  0  0  0  0  0
  209.6422  204.7154    5.6929 C   0  0  2  0  0  0  0  0  0  0  0  0
  208.3448  204.4520    4.8958 C   0  0  2  0  0  0  0  0  0  0  0  0
  208.5897  203.9408    3.5724 O   0  0  0  0  0  0  0  0  0  0  0  0
  209.4510  204.7144    2.7427 C   0  0  1  0  0  0  0  0  0  0  0  0
  210.8022  204.9967    3.4598 C   0  0  1  0  0  0  0  0  0  0  0  0
  210.8749  204.3577    4.8561 C   0  0  1  0  0  0  0  0  0  0  0  0
  212.0856  204.8227    5.4884 O   0  0  0  0  0  0  0  0  0  0  0  0
  211.9605  204.5071    2.7385 O   0  0  0  0  0  0  0  0  0  0  0  0
  209.7685  204.0954    1.4721 O   0  0  0  0  0  0  0  0  0  0  0  0
  208.9906  202.9472    1.0923 C   0  0  2  0  0  0  0  0  0  0  0  0
  209.9957  201.8244    0.7607 C   0  0  2  0  0  0  0  0  0  0  0  0
  209.6366  200.8106   -0.1903 O   0  0  0  0  0  0  0  0  0  0  0  0
  208.5426  200.9906   -1.0680 C   0  0  1  0  0  0  0  0  0  0  0  0
  207.4460  201.9241   -0.5327 C   0  0  1  0  0  0  0  0  0  0  0  0
  208.0886  203.2458   -0.1005 C   0  0  1  0  0  0  0  0  0  0  0  0
  207.0527  204.1743    0.2562 O   0  0  0  0  0  0  0  0  0  0  0  0
  206.4612  202.1995   -1.5473 O   0  0  0  0  0  0  0  0  0  0  0  0
  208.8623  201.5122   -2.3618 O   0  0  0  0  0  0  0  0  0  0  0  0
  210.1371  201.2258   -2.9448 C   0  0  2  0  0  0  0  0  0  0  0  0
  210.0734  201.8664   -4.3559 C   0  0  2  0  0  0  0  0  0  0  0  0
  210.3611  200.9704   -5.4451 O   0  0  0  0  0  0  0  0  0  0  0  0
  209.5650  199.7905   -5.3985 C   0  0  1  0  0  0  0  0  0  0  0  0
  209.8528  198.9546   -4.1261 C   0  0  1  0  0  0  0  0  0  0  0  0
  210.5524  199.7481   -3.0129 C   0  0  1  0  0  0  0  0  0  0  0  0
  211.9781  199.7135   -3.2139 O   0  0  0  0  0  0  0  0  0  0  0  0
  208.6664  198.3328   -3.6070 O   0  0  0  0  0  0  0  0  0  0  0  0
  208.1708  200.0967   -5.4374 O   0  0  0  0  0  0  0  0  0  0  0  0
  207.6911  200.5382   -6.7268 C   0  0  2  0  0  0  0  0  0  0  0  0
  206.6959  201.6722   -6.4107 C   0  0  2  0  0  0  0  0  0  0  0  0
  205.5516  201.1553   -5.7122 O   0  0  0  0  0  0  0  0  0  0  0  0
  204.8056  200.1806   -6.4399 C   0  0  1  0  0  0  0  0  0  0  0  0
  205.6796  198.9619   -6.8295 C   0  0  1  0  0  0  0  0  0  0  0  0
  207.0280  199.3465   -7.4474 C   0  0  1  0  0  0  0  0  0  0  0  0
  206.9147  199.5675   -8.8550 O   0  0  0  0  0  0  0  0  0  0  0  0
  205.9323  198.1562   -5.6516 O   0  0  0  0  0  0  0  0  0  0  0  0
  203.7716  199.6415   -5.5957 O   0  0  0  0  0  0  0  0  0  0  0  0
  202.9320  200.6328   -4.9781 C   0  0  2  0  0  0  0  0  0  0  0  0
  202.6784  200.1475   -3.5329 C   0  0  2  0  0  0  0  0  0  0  0  0
  201.2944  199.8607   -3.2965 O   0  0  0  0  0  0  0  0  0  0  0  0
  200.4432  200.9776   -3.5161 C   0  0  1  0  0  0  0  0  0  0  0  0
  200.5747  201.5372   -4.9509 C   0  0  1  0  0  0  0  0  0  0  0  0
  201.6179  200.7658   -5.7653 C   0  0  1  0  0  0  0  0  0  0  0  0
  201.8507  201.4693   -7.0021 O   0  0  0  0  0  0  0  0  0  0  0  0
  199.3277  201.5357   -5.6669 O   0  0  0  0  0  0  0  0  0  0  0  0
  199.1000  200.5329   -3.2748 O   0  0  0  0  0  0  0  0  0  0  0  0
  198.7641  200.6682   -1.8857 C   0  0  2  0  0  0  0  0  0  0  0  0
  197.8897  199.4854   -1.4037 C   0  0  2  0  0  0  0  0  0  0  0  0
  197.0400  199.8072   -0.2625 O   0  0  0  0  0  0  0  0  0  0  0  0
  197.5757  200.8488    0.5500 C   0  0  2  0  0  0  0  0  0  0  0  0
  196.7219  201.1170    1.6690 O   0  0  0  0  0  0  0  0  0  0  0  0
  197.6504  202.1793   -0.2330 C   0  0  1  0  0  0  0  0  0  0  0  0
  197.9597  201.9533   -1.7069 C   0  0  1  0  0  0  0  0  0  0  0  0
  198.6653  203.0948   -2.2159 O   0  0  0  0  0  0  0  0  0  0  0  0
  196.4177  202.9242   -0.1678 O   0  0  0  0  0  0  0  0  0  0  0  0
  198.7594  198.2648   -1.0596 C   0  0  0  0  0  0  0  0  0  0  0  0
  197.9307  197.1573   -0.7081 O   0  0  0  0  0  0  0  0  0  0  0  0
  203.2270  201.1306   -2.4825 C   0  0  0  0  0  0  0  0  0  0  0  0
  202.7525  200.7817   -1.1799 O   0  0  0  0  0  0  0  0  0  0  0  0
  206.3046  202.5895   -7.5833 C   0  0  0  0  0  0  0  0  0  0  0  0
  205.8461  201.8697   -8.7243 O   0  0  0  0  0  0  0  0  0  0  0  0
  211.0255  203.0563   -4.4827 C   0  0  0  0  0  0  0  0  0  0  0  0
  210.8024  203.7026   -5.7405 O   0  0  0  0  0  0  0  0  0  0  0  0
  210.2958  201.0344    2.0508 C   0  0  0  0  0  0  0  0  0  0  0  0
  211.3495  200.0988    1.8161 O   0  0  0  0  0  0  0  0  0  0  0  0
  207.4337  205.6916    4.9002 C   0  0  0  0  0  0  0  0  0  0  0  0
  208.0817  206.8347    4.3330 O   0  0  0  0  0  0  0  0  0  0  0  0
  208.1332  199.9753    5.4259 C   0  0  0  0  0  0  0  0  0  0  0  0
  206.8247  200.5253    5.2726 O   0  0  0  0  0  0  0  0  0  0  0  0
  204.8237  200.5796   11.1047 C   0  0  0  0  0  0  0  0  0  0  0  0
  205.9398  200.0850   11.8362 O   0  0  0  0  0  0  0  0  0  0  0  0
  201.5456  201.1049    7.2775 C   0  0  0  0  0  0  0  0  0  0  0  0
  200.8278  201.5312    8.4382 O   0  0  0  0  0  0  0  0  0  0  0  0
  197.8673  197.3119    4.4072 O   0  0  0  0  0  0  0  0  0  0  0  0
  195.9151  198.6274    2.6966 O   0  0  0  0  0  0  0  0  0  0  0  0
  197.6476  202.5519    5.3014 O   0  0  0  0  0  0  0  0  0  0  0  0
  199.3595  203.0807    4.3127 H   0  0  0  0  0  0  0  0  0  0  0  0
  197.8356  203.3578    3.4291 H   0  0  0  0  0  0  0  0  0  0  0  0
  199.1394  201.5244    2.5033 H   0  0  0  0  0  0  0  0  0  0  0  0
  196.4015  201.0402    3.6470 H   0  0  0  0  0  0  0  0  0  0  0  0
  197.9100  198.7346    2.3369 H   0  0  0  0  0  0  0  0  0  0  0  0
  196.6684  198.7759    5.1261 H   0  0  0  0  0  0  0  0  0  0  0  0
  198.1967  200.2556    5.8370 H   0  0  0  0  0  0  0  0  0  0  0  0
  199.3153  199.8531    7.4648 H   0  0  0  0  0  0  0  0  0  0  0  0
  201.9091  199.3914    6.0865 H   0  0  0  0  0  0  0  0  0  0  0  0
  201.6071  199.7125    9.7195 H   0  0  0  0  0  0  0  0  0  0  0  0
  199.7535  198.4317    9.9843 H   0  0  0  0  0  0  0  0  0  0  0  0
  200.2616  196.9696    7.3534 H   0  0  0  0  0  0  0  0  0  0  0  0
  198.4017  196.6631    8.4865 H   0  0  0  0  0  0  0  0  0  0  0  0
  201.5139  196.5304   10.1250 H   0  0  0  0  0  0  0  0  0  0  0  0
  204.4608  198.0211   11.1195 H   0  0  0  0  0  0  0  0  0  0  0  0
  203.6975  200.3115    9.3644 H   0  0  0  0  0  0  0  0  0  0  0  0
  207.1244  199.2077   10.1111 H   0  0  0  0  0  0  0  0  0  0  0  0
  206.7352  196.9840    9.9713 H   0  0  0  0  0  0  0  0  0  0  0  0
  204.3585  197.4942    8.1175 H   0  0  0  0  0  0  0  0  0  0  0  0
  204.8350  195.4489    8.7143 H   0  0  0  0  0  0  0  0  0  0  0  0
  207.6416  197.2771    7.7662 H   0  0  0  0  0  0  0  0  0  0  0  0
  207.1983  201.1307    7.8473 H   0  0  0  0  0  0  0  0  0  0  0  0
  209.8223  200.0254    6.7129 H   0  0  0  0  0  0  0  0  0  0  0  0
  208.0278  203.0825    7.4247 H   0  0  0  0  0  0  0  0  0  0  0  0
  209.6420  203.1498    9.3939 H   0  0  0  0  0  0  0  0  0  0  0  0
  209.7212  200.3101    9.3572 H   0  0  0  0  0  0  0  0  0  0  0  0
  208.8568  201.5984   10.9412 H   0  0  0  0  0  0  0  0  0  0  0  0
  211.4545  202.8005    7.8713 H   0  0  0  0  0  0  0  0  0  0  0  0
  209.7085  205.7904    5.9000 H   0  0  0  0  0  0  0  0  0  0  0  0
  207.7535  203.6668    5.3693 H   0  0  0  0  0  0  0  0  0  0  0  0
  208.9472  205.6483    2.4771 H   0  0  0  0  0  0  0  0  0  0  0  0
  210.9554  206.0818    3.5260 H   0  0  0  0  0  0  0  0  0  0  0  0
  210.9987  203.2721    4.7784 H   0  0  0  0  0  0  0  0  0  0  0  0
  212.7607  204.7804    4.7783 H   0  0  0  0  0  0  0  0  0  0  0  0
  211.6722  204.4090    1.8127 H   0  0  0  0  0  0  0  0  0  0  0  0
  208.3346  202.6195    1.9044 H   0  0  0  0  0  0  0  0  0  0  0  0
  210.9391  202.2609    0.4037 H   0  0  0  0  0  0  0  0  0  0  0  0
  208.1039  200.0027   -1.2441 H   0  0  0  0  0  0  0  0  0  0  0  0
  206.9234  201.4686    0.3189 H   0  0  0  0  0  0  0  0  0  0  0  0
  208.6497  203.7206   -0.9151 H   0  0  0  0  0  0  0  0  0  0  0  0
  206.3762  204.0754   -0.4484 H   0  0  0  0  0  0  0  0  0  0  0  0
  206.9193  202.0381   -2.3996 H   0  0  0  0  0  0  0  0  0  0  0  0
  210.8720  201.7677   -2.3370 H   0  0  0  0  0  0  0  0  0  0  0  0
  209.0679  202.2644   -4.5405 H   0  0  0  0  0  0  0  0  0  0  0  0
  209.8168  199.1807   -6.2725 H   0  0  0  0  0  0  0  0  0  0  0  0
  210.5226  198.1365   -4.4226 H   0  0  0  0  0  0  0  0  0  0  0  0
  210.3671  199.2603   -2.0506 H   0  0  0  0  0  0  0  0  0  0  0  0
  212.2764  198.8066   -3.0124 H   0  0  0  0  0  0  0  0  0  0  0  0
  207.9401  198.5398   -4.2361 H   0  0  0  0  0  0  0  0  0  0  0  0
  208.5173  200.9326   -7.3312 H   0  0  0  0  0  0  0  0  0  0  0  0
  207.1669  202.3343   -5.6740 H   0  0  0  0  0  0  0  0  0  0  0  0
  204.3407  200.6353   -7.3180 H   0  0  0  0  0  0  0  0  0  0  0  0
  205.1093  198.3226   -7.5151 H   0  0  0  0  0  0  0  0  0  0  0  0
  207.6951  198.4813   -7.3503 H   0  0  0  0  0  0  0  0  0  0  0  0
  206.4280  200.4104   -8.9924 H   0  0  0  0  0  0  0  0  0  0  0  0
  205.0517  198.0649   -5.2321 H   0  0  0  0  0  0  0  0  0  0  0  0
  203.4407  201.6023   -4.9567 H   0  0  0  0  0  0  0  0  0  0  0  0
  203.1895  199.1916   -3.3627 H   0  0  0  0  0  0  0  0  0  0  0  0
  200.7058  201.7829   -2.8199 H   0  0  0  0  0  0  0  0  0  0  0  0
  200.8749  202.5914   -4.8915 H   0  0  0  0  0  0  0  0  0  0  0  0
  201.2349  199.7796   -6.0523 H   0  0  0  0  0  0  0  0  0  0  0  0
  200.9540  201.6764   -7.3452 H   0  0  0  0  0  0  0  0  0  0  0  0
  198.6516  201.3102   -4.9947 H   0  0  0  0  0  0  0  0  0  0  0  0
  199.6778  200.7119   -1.2747 H   0  0  0  0  0  0  0  0  0  0  0  0
  197.1999  199.1836   -2.2010 H   0  0  0  0  0  0  0  0  0  0  0  0
  198.5750  200.5313    0.8618 H   0  0  0  0  0  0  0  0  0  0  0  0
  198.3993  202.8223    0.2439 H   0  0  0  0  0  0  0  0  0  0  0  0
  197.0397  201.8840   -2.3018 H   0  0  0  0  0  0  0  0  0  0  0  0
  198.0454  203.8446   -2.1187 H   0  0  0  0  0  0  0  0  0  0  0  0
  195.8883  202.4992    0.5391 H   0  0  0  0  0  0  0  0  0  0  0  0
  199.3836  197.9670   -1.9073 H   0  0  0  0  0  0  0  0  0  0  0  0
  199.4112  198.4678   -0.2032 H   0  0  0  0  0  0  0  0  0  0  0  0
  197.2210  197.4977   -0.1357 H   0  0  0  0  0  0  0  0  0  0  0  0
  204.3200  201.1134   -2.4787 H   0  0  0  0  0  0  0  0  0  0  0  0
  202.9089  202.1581   -2.6823 H   0  0  0  0  0  0  0  0  0  0  0  0
  202.9446  199.8374   -1.0526 H   0  0  0  0  0  0  0  0  0  0  0  0
  205.4964  203.2605   -7.2716 H   0  0  0  0  0  0  0  0  0  0  0  0
  207.1657  203.1881   -7.8955 H   0  0  0  0  0  0  0  0  0  0  0  0
  205.4637  202.5274   -9.3362 H   0  0  0  0  0  0  0  0  0  0  0  0
  210.8483  203.7919   -3.6921 H   0  0  0  0  0  0  0  0  0  0  0  0
  212.0709  202.7356   -4.4542 H   0  0  0  0  0  0  0  0  0  0  0  0
  210.8686  202.9915   -6.4072 H   0  0  0  0  0  0  0  0  0  0  0  0
  209.4117  200.4483    2.3295 H   0  0  0  0  0  0  0  0  0  0  0  0
  210.5754  201.6712    2.8932 H   0  0  0  0  0  0  0  0  0  0  0  0
  211.1598  199.7039    0.9453 H   0  0  0  0  0  0  0  0  0  0  0  0
  206.5284  205.4925    4.3193 H   0  0  0  0  0  0  0  0  0  0  0  0
  207.1533  205.9441    5.9288 H   0  0  0  0  0  0  0  0  0  0  0  0
  207.4235  207.5289    4.2494 H   0  0  0  0  0  0  0  0  0  0  0  0
  208.0392  198.8901    5.5430 H   0  0  0  0  0  0  0  0  0  0  0  0
  208.6740  200.1638    4.4945 H   0  0  0  0  0  0  0  0  0  0  0  0
  206.2329  200.0079    5.8518 H   0  0  0  0  0  0  0  0  0  0  0  0
  203.9607  200.5710   11.7784 H   0  0  0  0  0  0  0  0  0  0  0  0
  205.0398  201.6188   10.8344 H   0  0  0  0  0  0  0  0  0  0  0  0
  206.6905  200.6786   11.6225 H   0  0  0  0  0  0  0  0  0  0  0  0
  202.5850  201.4202    7.4057 H   0  0  0  0  0  0  0  0  0  0  0  0
  201.1291  201.6306    6.4103 H   0  0  0  0  0  0  0  0  0  0  0  0
  200.0536  202.0359    8.1343 H   0  0  0  0  0  0  0  0  0  0  0  0
  197.0510  196.8710    4.1067 H   0  0  0  0  0  0  0  0  0  0  0  0
  195.6597  199.0604    1.8583 H   0  0  0  0  0  0  0  0  0  0  0  0
  197.4590  203.4573    5.6054 H   0  0  0  0  0  0  0  0  0  0  0  0
  1  2  1  0  0  0  0
  1110  1  0  0  0  0
  1111  1  0  0  0  0
  1112  1  0  0  0  0
  2  3  1  0  0  0  0
  2  7  1  0  0  0  0
  2113  1  6  0  0  0
  3  4  1  0  0  0  0
  3 85  1  0  0  0  0
  3114  1  1  0  0  0
  4  5  1  0  0  0  0
  4109  1  0  0  0  0
  4115  1  6  0  0  0
  5  6  1  0  0  0  0
  5108  1  0  0  0  0
  5116  1  1  0  0  0
  6  7  1  0  0  0  0
  6  8  1  0  0  0  0
  6117  1  1  0  0  0
  8  9  1  0  0  0  0
  9 10  1  0  0  0  0
  9 14  1  0  0  0  0
  9118  1  1  0  0  0
 10 11  1  0  0  0  0
 10106  1  0  0  0  0
 10119  1  6  0  0  0
 11 12  1  0  0  0  0
 12 13  1  0  0  0  0
 12 17  1  0  0  0  0
 12120  1  1  0  0  0
 13 14  1  0  0  0  0
 13 16  1  0  0  0  0
 13121  1  1  0  0  0
 14 15  1  0  0  0  0
 14122  1  6  0  0  0
 15123  1  0  0  0  0
 16124  1  0  0  0  0
 17 18  1  0  0  0  0
 18 19  1  0  0  0  0
 18 23  1  0  0  0  0
 18125  1  1  0  0  0
 19 20  1  0  0  0  0
 19104  1  0  0  0  0
 19126  1  6  0  0  0
 20 21  1  0  0  0  0
 21 22  1  0  0  0  0
 21 26  1  0  0  0  0
 21127  1  1  0  0  0
 22 23  1  0  0  0  0
 22 25  1  0  0  0  0
 22128  1  1  0  0  0
 23 24  1  0  0  0  0
 23129  1  6  0  0  0
 24130  1  0  0  0  0
 25131  1  0  0  0  0
 26 27  1  0  0  0  0
 27 28  1  0  0  0  0
 27 32  1  0  0  0  0
 27132  1  6  0  0  0
 28 29  1  0  0  0  0
 28102  1  0  0  0  0
 28133  1  1  0  0  0
 29 30  1  0  0  0  0
 30 31  1  0  0  0  0
 30 35  1  0  0  0  0
 30134  1  1  0  0  0
 31 32  1  0  0  0  0
 31 34  1  0  0  0  0
 31135  1  1  0  0  0
 32 33  1  0  0  0  0
 32136  1  1  0  0  0
 33137  1  0  0  0  0
 34138  1  0  0  0  0
 35 36  1  0  0  0  0
 36 37  1  0  0  0  0
 36 41  1  0  0  0  0
 36139  1  1  0  0  0
 37 38  1  0  0  0  0
 37100  1  0  0  0  0
 37140  1  1  0  0  0
 38 39  1  0  0  0  0
 39 40  1  0  0  0  0
 39 44  1  0  0  0  0
 39141  1  6  0  0  0
 40 41  1  0  0  0  0
 40 43  1  0  0  0  0
 40142  1  1  0  0  0
 41 42  1  0  0  0  0
 41143  1  6  0  0  0
 42144  1  0  0  0  0
 43145  1  0  0  0  0
 44 45  1  0  0  0  0
 45 46  1  0  0  0  0
 45 50  1  0  0  0  0
 45146  1  1  0  0  0
 46 47  1  0  0  0  0
 46 98  1  0  0  0  0
 46147  1  6  0  0  0
 47 48  1  0  0  0  0
 48 49  1  0  0  0  0
 48 53  1  0  0  0  0
 48148  1  6  0  0  0
 49 50  1  0  0  0  0
 49 52  1  0  0  0  0
 49149  1  1  0  0  0
 50 51  1  0  0  0  0
 50150  1  6  0  0  0
 51151  1  0  0  0  0
 52152  1  0  0  0  0
 53 54  1  0  0  0  0
 54 55  1  0  0  0  0
 54 59  1  0  0  0  0
 54153  1  1  0  0  0
 55 56  1  0  0  0  0
 55 96  1  0  0  0  0
 55154  1  6  0  0  0
 56 57  1  0  0  0  0
 57 58  1  0  0  0  0
 57 62  1  0  0  0  0
 57155  1  6  0  0  0
 58 59  1  0  0  0  0
 58 61  1  0  0  0  0
 58156  1  6  0  0  0
 59 60  1  0  0  0  0
 59157  1  1  0  0  0
 60158  1  0  0  0  0
 61159  1  0  0  0  0
 62 63  1  0  0  0  0
 63 64  1  0  0  0  0
 63 68  1  0  0  0  0
 63160  1  6  0  0  0
 64 65  1  0  0  0  0
 64 94  1  0  0  0  0
 64161  1  1  0  0  0
 65 66  1  0  0  0  0
 66 67  1  0  0  0  0
 66 71  1  0  0  0  0
 66162  1  6  0  0  0
 67 68  1  0  0  0  0
 67 70  1  0  0  0  0
 67163  1  6  0  0  0
 68 69  1  0  0  0  0
 68164  1  1  0  0  0
 69165  1  0  0  0  0
 70166  1  0  0  0  0
 71 72  1  0  0  0  0
 72 73  1  0  0  0  0
 72 77  1  0  0  0  0
 72167  1  1  0  0  0
 73 74  1  0  0  0  0
 73 92  1  0  0  0  0
 73168  1  1  0  0  0
 74 75  1  0  0  0  0
 75 76  1  0  0  0  0
 75 80  1  0  0  0  0
 75169  1  1  0  0  0
 76 77  1  0  0  0  0
 76 79  1  0  0  0  0
 76170  1  1  0  0  0
 77 78  1  0  0  0  0
 77171  1  6  0  0  0
 78172  1  0  0  0  0
 79173  1  0  0  0  0
 80 81  1  0  0  0  0
 81 82  1  0  0  0  0
 81 87  1  0  0  0  0
 81174  1  1  0  0  0
 82 83  1  0  0  0  0
 82 90  1  0  0  0  0
 82175  1  6  0  0  0
 83 84  1  0  0  0  0
 84 85  1  0  0  0  0
 84 86  1  0  0  0  0
 84176  1  1  0  0  0
 86 87  1  0  0  0  0
 86 89  1  0  0  0  0
 86177  1  1  0  0  0
 87 88  1  0  0  0  0
 87178  1  6  0  0  0
 88179  1  0  0  0  0
 89180  1  0  0  0  0
 90 91  1  0  0  0  0
 90181  1  0  0  0  0
 90182  1  0  0  0  0
 91183  1  0  0  0  0
 92 93  1  0  0  0  0
 92184  1  0  0  0  0
 92185  1  0  0  0  0
 93186  1  0  0  0  0
 94 95  1  0  0  0  0
 94187  1  0  0  0  0
 94188  1  0  0  0  0
 95189  1  0  0  0  0
 96 97  1  0  0  0  0
 96190  1  0  0  0  0
 96191  1  0  0  0  0
 97192  1  0  0  0  0
 98 99  1  0  0  0  0
 98193  1  0  0  0  0
 98194  1  0  0  0  0
 99195  1  0  0  0  0
100101  1  0  0  0  0
100196  1  0  0  0  0
100197  1  0  0  0  0
101198  1  0  0  0  0
102103  1  0  0  0  0
102199  1  0  0  0  0
102200  1  0  0  0  0
103201  1  0  0  0  0
104105  1  0  0  0  0
104202  1  0  0  0  0
104203  1  0  0  0  0
105204  1  0  0  0  0
106107  1  0  0  0  0
106205  1  0  0  0  0
106206  1  0  0  0  0
107207  1  0  0  0  0
108208  1  0  0  0  0
109209  1  0  0  0  0
110210  1  0  0  0  0
M  END
