
 OpenBabel10072619563D

 80 83  0  0  1  0  0  0  0  0999 V2000
   -3.4046   -2.5132   -4.1917 C   0  0  0  0  0  0  0  0  0  0  0  0
   -1.9381   -2.1426   -4.3932 C   0  0  1  0  0  0  0  0  0  0  0  0
   -1.0267   -3.3672   -4.2538 C   0  0  1  0  0  0  0  0  0  0  0  0
    0.4204   -2.9785   -4.5813 C   0  0  2  0  0  0  0  0  0  0  0  0
    0.5101   -2.2580   -5.9310 C   0  0  2  0  0  0  0  0  0  0  0  0
   -0.4862   -1.0833   -5.9817 C   0  0  1  0  0  0  0  0  0  0  0  0
   -1.8111   -1.5642   -5.7033 O   0  0  0  0  0  0  0  0  0  0  0  0
   -0.0942   -0.0508   -5.0839 O   0  0  0  0  0  0  0  0  0  0  0  0
   -0.8954    1.1266   -5.2555 C   0  0  0  0  0  0  0  0  0  0  0  0
   -0.5111    2.1620   -4.1874 C   0  0  2  0  0  0  0  0  0  0  0  0
   -1.6483    3.1867   -4.0106 C   0  0  2  0  0  0  0  0  0  0  0  0
   -1.2202    4.3628   -3.1237 C   0  0  1  0  0  0  0  0  0  0  0  0
    0.1654    4.9054   -3.4973 C   0  0  2  0  0  0  0  0  0  0  0  0
    1.1829    3.7457   -3.6228 C   0  0  1  0  0  0  0  0  0  0  0  0
    0.6983    2.8153   -4.5981 O   0  0  0  0  0  0  0  0  0  0  0  0
    2.4661    4.1880   -4.0764 O   0  0  0  0  0  0  0  0  0  0  0  0
    3.2463    4.8378   -3.0756 C   0  0  0  0  0  0  0  0  0  0  0  0
    4.6902    4.9772   -3.5623 C   0  0  0  0  0  0  0  0  0  0  0  0
    5.4900    5.8611   -2.6354 C   0  0  0  0  0  0  0  0  0  0  0  0
    5.3888    7.2589   -2.7404 C   0  0  0  0  0  0  0  0  0  0  0  0
    6.0666    8.0675   -1.8350 C   0  0  0  0  0  0  0  0  0  0  0  0
    6.8476    7.4998   -0.8327 C   0  0  0  0  0  0  0  0  0  0  0  0
    6.9655    6.1229   -0.7188 C   0  0  0  0  0  0  0  0  0  0  0  0
    6.2859    5.3019   -1.6219 C   0  0  0  0  0  0  0  0  0  0  0  0
    7.4999    8.3026    0.0586 O   0  0  0  0  0  0  0  0  0  0  0  0
    5.9833    9.4319   -1.8804 O   0  0  0  0  0  0  0  0  0  0  0  0
    0.5083    5.8911   -2.5051 O   0  0  0  0  0  0  0  0  0  0  0  0
   -2.1839    5.4258   -3.2256 O   0  0  0  0  0  0  0  0  0  0  0  0
   -2.8820    2.5723   -3.5458 O   0  0  0  0  0  0  0  0  0  0  0  0
   -2.8802    1.9621   -2.3357 C   0  0  0  0  0  0  0  0  0  0  0  0
   -1.9323    1.8777   -1.5720 O   0  0  0  0  0  0  0  0  0  0  0  0
   -4.2100    1.3661   -2.1075 C   0  0  0  0  0  0  0  0  0  0  0  0
   -4.3983    0.5734   -1.0414 C   0  0  0  0  0  0  0  0  0  0  0  0
   -5.6762   -0.0654   -0.6967 C   0  0  0  0  0  0  0  0  0  0  0  0
   -5.9787   -0.2630    0.6601 C   0  0  0  0  0  0  0  0  0  0  0  0
   -7.1671   -0.8907    1.0179 C   0  0  0  0  0  0  0  0  0  0  0  0
   -8.0515   -1.3325    0.0392 C   0  0  0  0  0  0  0  0  0  0  0  0
   -7.7628   -1.1646   -1.3055 C   0  0  0  0  0  0  0  0  0  0  0  0
   -6.5710   -0.5342   -1.6735 C   0  0  0  0  0  0  0  0  0  0  0  0
   -9.2156   -1.9469    0.3999 O   0  0  0  0  0  0  0  0  0  0  0  0
   -7.5102   -1.0978    2.3257 O   0  0  0  0  0  0  0  0  0  0  0  0
    0.2338   -3.2211   -6.9724 O   0  0  0  0  0  0  0  0  0  0  0  0
    1.2139   -4.1796   -4.6025 O   0  0  0  0  0  0  0  0  0  0  0  0
   -1.0866   -3.9100   -2.9326 O   0  0  0  0  0  0  0  0  0  0  0  0
   -3.5828   -2.9247   -3.1933 H   0  0  0  0  0  0  0  0  0  0  0  0
   -3.7277   -3.2482   -4.9372 H   0  0  0  0  0  0  0  0  0  0  0  0
   -4.0409   -1.6308   -4.3218 H   0  0  0  0  0  0  0  0  0  0  0  0
   -1.6867   -1.3903   -3.6347 H   0  0  0  0  0  0  0  0  0  0  0  0
   -1.3534   -4.1585   -4.9406 H   0  0  0  0  0  0  0  0  0  0  0  0
    0.8247   -2.3491   -3.7798 H   0  0  0  0  0  0  0  0  0  0  0  0
    1.5369   -1.9096   -6.0881 H   0  0  0  0  0  0  0  0  0  0  0  0
   -0.5024   -0.6920   -7.0068 H   0  0  0  0  0  0  0  0  0  0  0  0
   -1.9488    0.8495   -5.1524 H   0  0  0  0  0  0  0  0  0  0  0  0
   -0.7219    1.5278   -6.2610 H   0  0  0  0  0  0  0  0  0  0  0  0
   -0.2931    1.6252   -3.2586 H   0  0  0  0  0  0  0  0  0  0  0  0
   -1.8974    3.6036   -4.9960 H   0  0  0  0  0  0  0  0  0  0  0  0
   -1.2215    4.0860   -2.0659 H   0  0  0  0  0  0  0  0  0  0  0  0
    0.1061    5.4450   -4.4504 H   0  0  0  0  0  0  0  0  0  0  0  0
    1.3114    3.2206   -2.6671 H   0  0  0  0  0  0  0  0  0  0  0  0
    3.2233    4.2674   -2.1391 H   0  0  0  0  0  0  0  0  0  0  0  0
    2.8328    5.8323   -2.8903 H   0  0  0  0  0  0  0  0  0  0  0  0
    4.7113    5.3906   -4.5789 H   0  0  0  0  0  0  0  0  0  0  0  0
    5.1521    3.9850   -3.6454 H   0  0  0  0  0  0  0  0  0  0  0  0
    4.7709    7.6940   -3.5207 H   0  0  0  0  0  0  0  0  0  0  0  0
    7.5738    5.6919    0.0707 H   0  0  0  0  0  0  0  0  0  0  0  0
    6.3766    4.2223   -1.5241 H   0  0  0  0  0  0  0  0  0  0  0  0
    7.2763    9.2120   -0.2236 H   0  0  0  0  0  0  0  0  0  0  0  0
    5.3938    9.6727   -2.6157 H   0  0  0  0  0  0  0  0  0  0  0  0
    0.6306    5.4367   -1.6523 H   0  0  0  0  0  0  0  0  0  0  0  0
   -1.7529    6.2230   -2.8577 H   0  0  0  0  0  0  0  0  0  0  0  0
   -4.9919    1.6074   -2.8171 H   0  0  0  0  0  0  0  0  0  0  0  0
   -3.5763    0.3821   -0.3511 H   0  0  0  0  0  0  0  0  0  0  0  0
   -5.2902    0.0836    1.4248 H   0  0  0  0  0  0  0  0  0  0  0  0
   -8.4536   -1.5243   -2.0621 H   0  0  0  0  0  0  0  0  0  0  0  0
   -6.3512   -0.4261   -2.7324 H   0  0  0  0  0  0  0  0  0  0  0  0
   -9.1996   -1.9499    1.3778 H   0  0  0  0  0  0  0  0  0  0  0  0
   -6.7883   -0.7660    2.8872 H   0  0  0  0  0  0  0  0  0  0  0  0
   -0.7253   -3.1807   -7.1569 H   0  0  0  0  0  0  0  0  0  0  0  0
    1.2270   -4.4691   -5.5388 H   0  0  0  0  0  0  0  0  0  0  0  0
   -0.3332   -4.5316   -2.8742 H   0  0  0  0  0  0  0  0  0  0  0  0
  1  2  1  0  0  0  0
  1 45  1  0  0  0  0
  1 46  1  0  0  0  0
  1 47  1  0  0  0  0
  2  3  1  0  0  0  0
  2  7  1  0  0  0  0
  2 48  1  1  0  0  0
  3  4  1  0  0  0  0
  3 44  1  0  0  0  0
  3 49  1  6  0  0  0
  4  5  1  0  0  0  0
  4 43  1  0  0  0  0
  4 50  1  1  0  0  0
  5  6  1  0  0  0  0
  5 42  1  0  0  0  0
  5 51  1  6  0  0  0
  6  7  1  0  0  0  0
  6  8  1  0  0  0  0
  6 52  1  6  0  0  0
  8  9  1  0  0  0  0
  9 53  1  0  0  0  0
  9 54  1  0  0  0  0
 10 11  1  0  0  0  0
 10 15  1  0  0  0  0
 10  9  1  0  0  0  0
 10 55  1  1  0  0  0
 11 12  1  0  0  0  0
 11 29  1  0  0  0  0
 11 56  1  6  0  0  0
 12 13  1  0  0  0  0
 12 28  1  0  0  0  0
 12 57  1  1  0  0  0
 13 14  1  0  0  0  0
 13 27  1  0  0  0  0
 13 58  1  6  0  0  0
 14 15  1  0  0  0  0
 14 16  1  0  0  0  0
 14 59  1  1  0  0  0
 16 17  1  0  0  0  0
 17 18  1  0  0  0  0
 17 60  1  0  0  0  0
 17 61  1  0  0  0  0
 18 19  1  0  0  0  0
 18 62  1  0  0  0  0
 18 63  1  0  0  0  0
 19 20  2  0  0  0  0
 19 24  1  0  0  0  0
 20 21  1  0  0  0  0
 20 64  1  0  0  0  0
 21 22  2  0  0  0  0
 21 26  1  0  0  0  0
 22 23  1  0  0  0  0
 22 25  1  0  0  0  0
 23 24  2  0  0  0  0
 23 65  1  0  0  0  0
 24 66  1  0  0  0  0
 25 67  1  0  0  0  0
 26 68  1  0  0  0  0
 27 69  1  0  0  0  0
 28 70  1  0  0  0  0
 29 30  1  0  0  0  0
 30 31  2  0  0  0  0
 30 32  1  0  0  0  0
 32 33  2  0  0  0  0
 32 71  1  0  0  0  0
 33 34  1  0  0  0  0
 33 72  1  0  0  0  0
 34 35  2  0  0  0  0
 34 39  1  0  0  0  0
 35 36  1  0  0  0  0
 35 73  1  0  0  0  0
 36 37  2  0  0  0  0
 36 41  1  0  0  0  0
 37 38  1  0  0  0  0
 37 40  1  0  0  0  0
 38 39  2  0  0  0  0
 38 74  1  0  0  0  0
 39 75  1  0  0  0  0
 40 76  1  0  0  0  0
 41 77  1  0  0  0  0
 42 78  1  0  0  0  0
 43 79  1  0  0  0  0
 44 80  1  0  0  0  0
M  END
