
 OpenBabel10072620113D

 63 66  0  0  0  0  0  0  0  0999 V2000
    2.4701    0.4491    9.1410 C   0  0  0  0  0  0  0  0  0  0  0  0
    3.6106    1.2643    8.5584 C   0  0  0  0  0  0  0  0  0  0  0  0
    3.8036    0.9939    7.0687 C   0  0  0  0  0  0  0  0  0  0  0  0
    4.9399    1.7467    6.6419 O   0  0  0  0  0  0  0  0  0  0  0  0
    5.4398    1.4473    5.4052 C   0  0  0  0  0  0  0  0  0  0  0  0
    4.7437    0.8151    4.3787 C   0  0  0  0  0  0  0  0  0  0  0  0
    5.3746    0.5793    3.1572 C   0  0  0  0  0  0  0  0  0  0  0  0
    6.7024    0.9720    2.9632 C   0  0  0  0  0  0  0  0  0  0  0  0
    7.4290    1.6110    3.9828 C   0  0  0  0  0  0  0  0  0  0  0  0
    6.7622    1.8539    5.1969 C   0  0  0  0  0  0  0  0  0  0  0  0
    8.8374    2.0007    3.7828 C   0  0  0  0  0  0  0  0  0  0  0  0
    9.1604    2.4459    2.5468 N   0  0  0  0  0  0  0  0  0  0  0  0
   10.4229    2.8121    2.2756 C   0  0  0  0  0  0  0  0  0  0  0  0
   10.7036    3.2687    0.9954 C   0  0  0  0  0  0  0  0  0  0  0  0
   11.9836    3.6750    0.6164 C   0  0  0  0  0  0  0  0  0  0  0  0
   13.0178    3.6277    1.5386 C   0  0  0  0  0  0  0  0  0  0  0  0
   12.7615    3.1758    2.8321 C   0  0  0  0  0  0  0  0  0  0  0  0
   11.4643    2.7558    3.2247 C   0  0  0  0  0  0  0  0  0  0  0  0
   11.1057    2.2880    4.5095 C   0  0  0  0  0  0  0  0  0  0  0  0
    9.7898    1.9012    4.7852 C   0  0  0  0  0  0  0  0  0  0  0  0
   12.1083    2.1416    5.5996 C   0  0  0  0  0  0  0  0  0  0  0  0
   13.2208    1.6625    5.3963 O   0  0  0  0  0  0  0  0  0  0  0  0
   11.6941    2.5677    6.8447 N   0  0  0  0  0  0  0  0  0  0  0  0
   12.5746    2.4347    7.9293 N   0  0  0  0  0  0  0  0  0  0  0  0
   12.2945    3.1808    9.0537 C   0  0  0  0  0  0  0  0  0  0  0  0
   11.2812    3.8627    9.1667 O   0  0  0  0  0  0  0  0  0  0  0  0
   13.2595    3.0458   10.0207 N   0  0  0  0  0  0  0  0  0  0  0  0
   13.0740    3.6239   11.3460 C   0  0  0  0  0  0  0  0  0  0  0  0
   14.4284    3.7921   12.0425 C   0  0  0  0  0  0  0  0  0  0  0  0
   14.2726    4.3279   13.4634 C   0  0  0  0  0  0  0  0  0  0  0  0
   13.3284    3.4617   14.2915 C   0  0  0  0  0  0  0  0  0  0  0  0
   11.9748    3.2977   13.6083 C   0  0  0  0  0  0  0  0  0  0  0  0
   12.1212    2.7615   12.1872 C   0  0  0  0  0  0  0  0  0  0  0  0
    2.3567    0.6611   10.2091 H   0  0  0  0  0  0  0  0  0  0  0  0
    2.6575   -0.6235    9.0271 H   0  0  0  0  0  0  0  0  0  0  0  0
    1.5247    0.6883    8.6444 H   0  0  0  0  0  0  0  0  0  0  0  0
    4.5401    1.0409    9.0962 H   0  0  0  0  0  0  0  0  0  0  0  0
    3.4221    2.3332    8.7157 H   0  0  0  0  0  0  0  0  0  0  0  0
    2.9129    1.3175    6.5172 H   0  0  0  0  0  0  0  0  0  0  0  0
    3.9724   -0.0791    6.9107 H   0  0  0  0  0  0  0  0  0  0  0  0
    3.7097    0.5082    4.4944 H   0  0  0  0  0  0  0  0  0  0  0  0
    4.8306    0.0899    2.3529 H   0  0  0  0  0  0  0  0  0  0  0  0
    7.1772    0.7760    2.0025 H   0  0  0  0  0  0  0  0  0  0  0  0
    7.2676    2.3759    6.0070 H   0  0  0  0  0  0  0  0  0  0  0  0
    9.8966    3.3101    0.2658 H   0  0  0  0  0  0  0  0  0  0  0  0
   12.1657    4.0286   -0.3947 H   0  0  0  0  0  0  0  0  0  0  0  0
   14.0204    3.9394    1.2571 H   0  0  0  0  0  0  0  0  0  0  0  0
   13.5916    3.1521    3.5362 H   0  0  0  0  0  0  0  0  0  0  0  0
    9.5244    1.4903    5.7545 H   0  0  0  0  0  0  0  0  0  0  0  0
   10.8491    3.1126    7.0178 H   0  0  0  0  0  0  0  0  0  0  0  0
   13.5462    2.2764    7.6725 H   0  0  0  0  0  0  0  0  0  0  0  0
   13.8103    2.2008    9.9610 H   0  0  0  0  0  0  0  0  0  0  0  0
   12.6221    4.6165   11.2171 H   0  0  0  0  0  0  0  0  0  0  0  0
   15.0618    4.4744   11.4625 H   0  0  0  0  0  0  0  0  0  0  0  0
   14.9573    2.8304   12.0727 H   0  0  0  0  0  0  0  0  0  0  0  0
   13.8891    5.3552   13.4271 H   0  0  0  0  0  0  0  0  0  0  0  0
   15.2538    4.3720   13.9488 H   0  0  0  0  0  0  0  0  0  0  0  0
   13.1874    3.9099   15.2815 H   0  0  0  0  0  0  0  0  0  0  0  0
   13.7805    2.4743   14.4474 H   0  0  0  0  0  0  0  0  0  0  0  0
   11.4595    4.2658   13.5808 H   0  0  0  0  0  0  0  0  0  0  0  0
   11.3447    2.6186   14.1936 H   0  0  0  0  0  0  0  0  0  0  0  0
   11.1321    2.7189   11.7158 H   0  0  0  0  0  0  0  0  0  0  0  0
   12.4893    1.7275   12.2231 H   0  0  0  0  0  0  0  0  0  0  0  0
  1  2  1  0  0  0  0
  1 34  1  0  0  0  0
  1 35  1  0  0  0  0
  1 36  1  0  0  0  0
  2  3  1  0  0  0  0
  2 37  1  0  0  0  0
  2 38  1  0  0  0  0
  3  4  1  0  0  0  0
  3 39  1  0  0  0  0
  3 40  1  0  0  0  0
  4  5  1  0  0  0  0
  5  6  2  0  0  0  0
  5 10  1  0  0  0  0
  6  7  1  0  0  0  0
  6 41  1  0  0  0  0
  7  8  2  0  0  0  0
  7 42  1  0  0  0  0
  8  9  1  0  0  0  0
  8 43  1  0  0  0  0
  9 10  2  0  0  0  0
  9 11  1  0  0  0  0
 10 44  1  0  0  0  0
 11 12  2  0  0  0  0
 11 20  1  0  0  0  0
 12 13  1  0  0  0  0
 13 14  2  0  0  0  0
 13 18  1  0  0  0  0
 14 15  1  0  0  0  0
 14 45  1  0  0  0  0
 15 16  2  0  0  0  0
 15 46  1  0  0  0  0
 16 17  1  0  0  0  0
 16 47  1  0  0  0  0
 17 18  2  0  0  0  0
 17 48  1  0  0  0  0
 18 19  1  0  0  0  0
 19 20  2  0  0  0  0
 19 21  1  0  0  0  0
 20 49  1  0  0  0  0
 21 22  2  0  0  0  0
 21 23  1  0  0  0  0
 23 24  1  0  0  0  0
 23 50  1  0  0  0  0
 24 25  1  0  0  0  0
 24 51  1  0  0  0  0
 25 26  2  0  0  0  0
 25 27  1  0  0  0  0
 27 28  1  0  0  0  0
 27 52  1  0  0  0  0
 28 29  1  0  0  0  0
 28 33  1  0  0  0  0
 28 53  1  0  0  0  0
 29 30  1  0  0  0  0
 29 54  1  0  0  0  0
 29 55  1  0  0  0  0
 30 31  1  0  0  0  0
 30 56  1  0  0  0  0
 30 57  1  0  0  0  0
 31 32  1  0  0  0  0
 31 58  1  0  0  0  0
 31 59  1  0  0  0  0
 32 33  1  0  0  0  0
 32 60  1  0  0  0  0
 32 61  1  0  0  0  0
 33 62  1  0  0  0  0
 33 63  1  0  0  0  0
M  END
