
 OpenBabel10072616433D

117119  0  0  0  0  0  0  0  0999 V2000
   11.8345   -4.0541  -21.5774 C   0  0  0  0  0  0  0  0  0  0  0  0
   11.9173   -3.6653  -20.1100 C   0  0  0  0  0  0  0  0  0  0  0  0
   12.8073   -2.4392  -19.9074 C   0  0  0  0  0  0  0  0  0  0  0  0
   12.8883   -2.0492  -18.4308 C   0  0  0  0  0  0  0  0  0  0  0  0
   13.7778   -0.8217  -18.2256 C   0  0  0  0  0  0  0  0  0  0  0  0
   13.8572   -0.4337  -16.7483 C   0  0  0  0  0  0  0  0  0  0  0  0
   14.7488    0.7921  -16.5382 C   0  0  0  0  0  0  0  0  0  0  0  0
   14.8228    1.1735  -15.0590 C   0  0  0  0  0  0  0  0  0  0  0  0
   15.7190    2.3930  -14.8328 C   0  0  0  0  0  0  0  0  0  0  0  0
   15.7671    2.7676  -13.3507 C   0  0  0  0  0  0  0  0  0  0  0  0
   16.6572    3.9828  -13.1002 C   0  0  0  0  0  0  0  0  0  0  0  0
   16.6684    4.3643  -11.6220 C   0  0  0  0  0  0  0  0  0  0  0  0
   17.5079    5.5083  -11.4652 O   0  0  0  0  0  0  0  0  0  0  0  0
   17.6833    5.9768  -10.1921 C   0  0  0  0  0  0  0  0  0  0  0  0
   17.0708    5.4708   -9.0434 C   0  0  0  0  0  0  0  0  0  0  0  0
   17.3468    6.0327   -7.7944 C   0  0  0  0  0  0  0  0  0  0  0  0
   18.2431    7.1004   -7.6985 C   0  0  0  0  0  0  0  0  0  0  0  0
   18.8458    7.6287   -8.8406 C   0  0  0  0  0  0  0  0  0  0  0  0
   18.5639    7.0589  -10.0837 C   0  0  0  0  0  0  0  0  0  0  0  0
   18.5891    7.7909   -6.1016 S   0  0  0  0  0  0  0  0  0  0  0  0
   19.4069    8.9732   -6.2625 O   0  0  0  0  0  0  0  0  0  0  0  0
   17.3370    7.8371   -5.3752 O   0  0  0  0  0  0  0  0  0  0  0  0
   19.5019    6.5667   -5.3709 N   0  0  0  0  0  0  0  0  0  0  0  0
   20.9110    6.5806   -5.5616 C   0  0  0  0  0  0  0  0  0  0  0  0
   21.7193    7.1377   -4.5718 C   0  0  0  0  0  0  0  0  0  0  0  0
   23.0965    7.2100   -4.7714 C   0  0  0  0  0  0  0  0  0  0  0  0
   23.6648    6.7054   -5.9460 C   0  0  0  0  0  0  0  0  0  0  0  0
   22.8542    6.1675   -6.9398 C   0  0  0  0  0  0  0  0  0  0  0  0
   21.4716    6.1081   -6.7493 C   0  0  0  0  0  0  0  0  0  0  0  0
   25.0107    6.7299   -6.1821 O   0  0  0  0  0  0  0  0  0  0  0  0
   23.8969    7.7896   -3.7297 N   0  0  0  0  0  0  0  0  0  0  0  0
   24.7576    6.6410   -2.8183 S   0  0  0  0  0  0  0  0  0  0  0  0
   23.9111    5.5048   -2.5324 O   0  0  0  0  0  0  0  0  0  0  0  0
   26.0214    6.4948   -3.5138 O   0  0  0  0  0  0  0  0  0  0  0  0
   25.0047    7.5341   -1.3127 C   0  0  0  0  0  0  0  0  0  0  0  0
   23.9878    7.5233   -0.3540 C   0  0  0  0  0  0  0  0  0  0  0  0
   24.1642    8.2085    0.8484 C   0  0  0  0  0  0  0  0  0  0  0  0
   25.3571    8.8920    1.0972 C   0  0  0  0  0  0  0  0  0  0  0  0
   26.3651    8.9002    0.1266 C   0  0  0  0  0  0  0  0  0  0  0  0
   26.1996    8.2144   -1.0789 C   0  0  0  0  0  0  0  0  0  0  0  0
   25.6454    9.5896    2.2397 O   0  0  0  0  0  0  0  0  0  0  0  0
   24.8171    9.3037    3.3680 C   0  0  0  0  0  0  0  0  0  0  0  0
   25.4286    9.9587    4.6031 C   0  0  0  0  0  0  0  0  0  0  0  0
   24.6741    9.5496    5.8670 C   0  0  0  0  0  0  0  0  0  0  0  0
   25.2190   10.2603    7.1049 C   0  0  0  0  0  0  0  0  0  0  0  0
   24.5242    9.7641    8.3742 C   0  0  0  0  0  0  0  0  0  0  0  0
   24.9999   10.5338    9.6064 C   0  0  0  0  0  0  0  0  0  0  0  0
   24.3178   10.0251   10.8776 C   0  0  0  0  0  0  0  0  0  0  0  0
   24.7630   10.8251   12.1030 C   0  0  0  0  0  0  0  0  0  0  0  0
   24.0855   10.3189   13.3772 C   0  0  0  0  0  0  0  0  0  0  0  0
   24.5299   11.1210   14.6021 C   0  0  0  0  0  0  0  0  0  0  0  0
   23.8552   10.6063   15.8734 C   0  0  0  0  0  0  0  0  0  0  0  0
   24.2901   11.3911   17.1006 C   0  0  0  0  0  0  0  0  0  0  0  0
   11.1937   -4.9326  -21.7020 H   0  0  0  0  0  0  0  0  0  0  0  0
   12.8254   -4.2968  -21.9747 H   0  0  0  0  0  0  0  0  0  0  0  0
   11.4144   -3.2391  -22.1754 H   0  0  0  0  0  0  0  0  0  0  0  0
   12.3114   -4.5114  -19.5350 H   0  0  0  0  0  0  0  0  0  0  0  0
   10.9081   -3.4598  -19.7346 H   0  0  0  0  0  0  0  0  0  0  0  0
   12.4111   -1.5980  -20.4891 H   0  0  0  0  0  0  0  0  0  0  0  0
   13.8142   -2.6495  -20.2883 H   0  0  0  0  0  0  0  0  0  0  0  0
   13.2844   -2.8914  -17.8505 H   0  0  0  0  0  0  0  0  0  0  0  0
   11.8807   -1.8405  -18.0511 H   0  0  0  0  0  0  0  0  0  0  0  0
   13.3816    0.0204  -18.8059 H   0  0  0  0  0  0  0  0  0  0  0  0
   14.7853   -1.0308  -18.6051 H   0  0  0  0  0  0  0  0  0  0  0  0
   14.2507   -1.2772  -16.1681 H   0  0  0  0  0  0  0  0  0  0  0  0
   12.8494   -0.2238  -16.3696 H   0  0  0  0  0  0  0  0  0  0  0  0
   14.3547    1.6368  -17.1161 H   0  0  0  0  0  0  0  0  0  0  0  0
   15.7570    0.5832  -16.9157 H   0  0  0  0  0  0  0  0  0  0  0  0
   15.2077    0.3249  -14.4804 H   0  0  0  0  0  0  0  0  0  0  0  0
   13.8136    1.3867  -14.6858 H   0  0  0  0  0  0  0  0  0  0  0  0
   15.3413    3.2420  -15.4153 H   0  0  0  0  0  0  0  0  0  0  0  0
   16.7324    2.1777  -15.1921 H   0  0  0  0  0  0  0  0  0  0  0  0
   16.1408    1.9159  -12.7691 H   0  0  0  0  0  0  0  0  0  0  0  0
   14.7511    2.9792  -12.9956 H   0  0  0  0  0  0  0  0  0  0  0  0
   16.3130    4.8388  -13.6935 H   0  0  0  0  0  0  0  0  0  0  0  0
   17.6832    3.7794  -13.4316 H   0  0  0  0  0  0  0  0  0  0  0  0
   17.0620    3.5260  -11.0347 H   0  0  0  0  0  0  0  0  0  0  0  0
   15.6472    4.6011  -11.2986 H   0  0  0  0  0  0  0  0  0  0  0  0
   16.3726    4.6417   -9.0852 H   0  0  0  0  0  0  0  0  0  0  0  0
   16.8631    5.6363   -6.9044 H   0  0  0  0  0  0  0  0  0  0  0  0
   19.5326    8.4696   -8.7750 H   0  0  0  0  0  0  0  0  0  0  0  0
   19.0337    7.4607  -10.9787 H   0  0  0  0  0  0  0  0  0  0  0  0
   19.1631    6.3879   -4.4257 H   0  0  0  0  0  0  0  0  0  0  0  0
   21.2849    7.5286   -3.6569 H   0  0  0  0  0  0  0  0  0  0  0  0
   23.2953    5.7822   -7.8548 H   0  0  0  0  0  0  0  0  0  0  0  0
   20.8472    5.6718   -7.5236 H   0  0  0  0  0  0  0  0  0  0  0  0
   25.4960    6.6056   -5.3412 H   0  0  0  0  0  0  0  0  0  0  0  0
   24.5788    8.4331   -4.1428 H   0  0  0  0  0  0  0  0  0  0  0  0
   23.0600    6.9836   -0.5342 H   0  0  0  0  0  0  0  0  0  0  0  0
   23.3536    8.1882    1.5695 H   0  0  0  0  0  0  0  0  0  0  0  0
   27.2939    9.4314    0.3233 H   0  0  0  0  0  0  0  0  0  0  0  0
   27.0013    8.2159   -1.8131 H   0  0  0  0  0  0  0  0  0  0  0  0
   24.7581    8.2199    3.5276 H   0  0  0  0  0  0  0  0  0  0  0  0
   23.8131    9.7130    3.2024 H   0  0  0  0  0  0  0  0  0  0  0  0
   25.4159   11.0487    4.4804 H   0  0  0  0  0  0  0  0  0  0  0  0
   26.4850    9.6746    4.6861 H   0  0  0  0  0  0  0  0  0  0  0  0
   24.7555    8.4637    6.0010 H   0  0  0  0  0  0  0  0  0  0  0  0
   23.6078    9.7806    5.7537 H   0  0  0  0  0  0  0  0  0  0  0  0
   25.0705   11.3418    6.9987 H   0  0  0  0  0  0  0  0  0  0  0  0
   26.2987   10.0874    7.1881 H   0  0  0  0  0  0  0  0  0  0  0  0
   24.7261    8.6941    8.5069 H   0  0  0  0  0  0  0  0  0  0  0  0
   23.4382    9.8768    8.2696 H   0  0  0  0  0  0  0  0  0  0  0  0
   24.7830   11.6009    9.4757 H   0  0  0  0  0  0  0  0  0  0  0  0
   26.0876   10.4344    9.7074 H   0  0  0  0  0  0  0  0  0  0  0  0
   24.5562    8.9643   11.0224 H   0  0  0  0  0  0  0  0  0  0  0  0
   23.2291   10.0995   10.7665 H   0  0  0  0  0  0  0  0  0  0  0  0
   24.5223   11.8850   11.9559 H   0  0  0  0  0  0  0  0  0  0  0  0
   25.8517   10.7526   12.2122 H   0  0  0  0  0  0  0  0  0  0  0  0
   24.3274    9.2593   13.5247 H   0  0  0  0  0  0  0  0  0  0  0  0
   22.9965   10.3894   13.2673 H   0  0  0  0  0  0  0  0  0  0  0  0
   24.2840   12.1800   14.4571 H   0  0  0  0  0  0  0  0  0  0  0  0
   25.6193   11.0542   14.7102 H   0  0  0  0  0  0  0  0  0  0  0  0
   24.0988    9.5477   16.0204 H   0  0  0  0  0  0  0  0  0  0  0  0
   22.7662   10.6772   15.7701 H   0  0  0  0  0  0  0  0  0  0  0  0
   25.3713   11.3150   17.2537 H   0  0  0  0  0  0  0  0  0  0  0  0
   23.7930   11.0001   17.9940 H   0  0  0  0  0  0  0  0  0  0  0  0
   24.0296   12.4497   17.0035 H   0  0  0  0  0  0  0  0  0  0  0  0
  1  2  1  0  0  0  0
  1 54  1  0  0  0  0
  1 55  1  0  0  0  0
  1 56  1  0  0  0  0
  2  3  1  0  0  0  0
  2 57  1  0  0  0  0
  2 58  1  0  0  0  0
  3  4  1  0  0  0  0
  3 59  1  0  0  0  0
  3 60  1  0  0  0  0
  4  5  1  0  0  0  0
  4 61  1  0  0  0  0
  4 62  1  0  0  0  0
  5  6  1  0  0  0  0
  5 63  1  0  0  0  0
  5 64  1  0  0  0  0
  6  7  1  0  0  0  0
  6 65  1  0  0  0  0
  6 66  1  0  0  0  0
  7  8  1  0  0  0  0
  7 67  1  0  0  0  0
  7 68  1  0  0  0  0
  8  9  1  0  0  0  0
  8 69  1  0  0  0  0
  8 70  1  0  0  0  0
  9 10  1  0  0  0  0
  9 71  1  0  0  0  0
  9 72  1  0  0  0  0
 10 11  1  0  0  0  0
 10 73  1  0  0  0  0
 10 74  1  0  0  0  0
 11 12  1  0  0  0  0
 11 75  1  0  0  0  0
 11 76  1  0  0  0  0
 12 13  1  0  0  0  0
 12 77  1  0  0  0  0
 12 78  1  0  0  0  0
 13 14  1  0  0  0  0
 14 15  2  0  0  0  0
 14 19  1  0  0  0  0
 15 16  1  0  0  0  0
 15 79  1  0  0  0  0
 16 17  2  0  0  0  0
 16 80  1  0  0  0  0
 17 18  1  0  0  0  0
 17 20  1  0  0  0  0
 18 19  2  0  0  0  0
 18 81  1  0  0  0  0
 19 82  1  0  0  0  0
 20 21  2  0  0  0  0
 20 22  2  0  0  0  0
 20 23  1  0  0  0  0
 23 24  1  0  0  0  0
 23 83  1  0  0  0  0
 24 25  2  0  0  0  0
 24 29  1  0  0  0  0
 25 26  1  0  0  0  0
 25 84  1  0  0  0  0
 26 27  2  0  0  0  0
 26 31  1  0  0  0  0
 27 28  1  0  0  0  0
 27 30  1  0  0  0  0
 28 29  2  0  0  0  0
 28 85  1  0  0  0  0
 29 86  1  0  0  0  0
 30 87  1  0  0  0  0
 31 32  1  0  0  0  0
 31 88  1  0  0  0  0
 32 33  2  0  0  0  0
 32 34  2  0  0  0  0
 32 35  1  0  0  0  0
 35 36  2  0  0  0  0
 35 40  1  0  0  0  0
 36 37  1  0  0  0  0
 36 89  1  0  0  0  0
 37 38  2  0  0  0  0
 37 90  1  0  0  0  0
 38 39  1  0  0  0  0
 38 41  1  0  0  0  0
 39 40  2  0  0  0  0
 39 91  1  0  0  0  0
 40 92  1  0  0  0  0
 41 42  1  0  0  0  0
 42 43  1  0  0  0  0
 42 93  1  0  0  0  0
 42 94  1  0  0  0  0
 43 44  1  0  0  0  0
 43 95  1  0  0  0  0
 43 96  1  0  0  0  0
 44 45  1  0  0  0  0
 44 97  1  0  0  0  0
 44 98  1  0  0  0  0
 45 46  1  0  0  0  0
 45 99  1  0  0  0  0
 45100  1  0  0  0  0
 46 47  1  0  0  0  0
 46101  1  0  0  0  0
 46102  1  0  0  0  0
 47 48  1  0  0  0  0
 47103  1  0  0  0  0
 47104  1  0  0  0  0
 48 49  1  0  0  0  0
 48105  1  0  0  0  0
 48106  1  0  0  0  0
 49 50  1  0  0  0  0
 49107  1  0  0  0  0
 49108  1  0  0  0  0
 50 51  1  0  0  0  0
 50109  1  0  0  0  0
 50110  1  0  0  0  0
 51 52  1  0  0  0  0
 51111  1  0  0  0  0
 51112  1  0  0  0  0
 52 53  1  0  0  0  0
 52113  1  0  0  0  0
 52114  1  0  0  0  0
 53115  1  0  0  0  0
 53116  1  0  0  0  0
 53117  1  0  0  0  0
M  END
