
 OpenBabel10072620173D

 77 81  0  0  0  0  0  0  0  0999 V2000
    2.7437   -1.1690   -0.5409 C   0  0  0  0  0  0  0  0  0  0  0  0
    3.2720    0.2130   -0.8904 C   0  0  0  0  0  0  0  0  0  0  0  0
    3.3822    0.9992    0.3040 O   0  0  0  0  0  0  0  0  0  0  0  0
    4.6385    1.1842    0.7963 C   0  0  0  0  0  0  0  0  0  0  0  0
    5.6668    1.6628   -0.0181 C   0  0  0  0  0  0  0  0  0  0  0  0
    6.9550    1.8904    0.5011 C   0  0  0  0  0  0  0  0  0  0  0  0
    7.2286    1.6610    1.8481 C   0  0  0  0  0  0  0  0  0  0  0  0
    6.1816    1.2459    2.6770 C   0  0  0  0  0  0  0  0  0  0  0  0
    4.8909    1.0172    2.1577 C   0  0  0  0  0  0  0  0  0  0  0  0
    3.6233    0.4879    3.2987 S   0  0  0  0  0  0  0  0  0  0  0  0
    3.0144   -0.7140    2.7718 O   0  0  0  0  0  0  0  0  0  0  0  0
    4.2361    0.4813    4.6137 O   0  0  0  0  0  0  0  0  0  0  0  0
    2.4893    1.7421    3.3151 N   0  0  0  0  0  0  0  0  0  0  0  0
    1.2345    1.5648    2.5610 C   0  0  0  0  0  0  0  0  0  0  0  0
    0.4835    2.8806    2.3953 C   0  0  0  0  0  0  0  0  0  0  0  0
    0.4917    3.7394    3.6650 C   0  0  0  0  0  0  0  0  0  0  0  0
    1.9032    3.9379    4.2422 C   0  0  0  0  0  0  0  0  0  0  0  0
    2.9635    3.1161    3.5199 C   0  0  0  0  0  0  0  0  0  0  0  0
   -0.5356    3.2578    4.6662 C   0  0  0  0  0  0  0  0  0  0  0  0
   -1.7629    3.7346    4.6887 N   0  0  0  0  0  0  0  0  0  0  0  0
   -2.4903    3.1429    5.7067 C   0  0  0  0  0  0  0  0  0  0  0  0
   -3.8289    3.4283    6.0412 C   0  0  0  0  0  0  0  0  0  0  0  0
   -4.4315    2.7672    7.1162 C   0  0  0  0  0  0  0  0  0  0  0  0
   -3.7226    1.8195    7.8480 C   0  0  0  0  0  0  0  0  0  0  0  0
   -2.3980    1.5097    7.5269 C   0  0  0  0  0  0  0  0  0  0  0  0
   -1.8013    2.1878    6.4526 C   0  0  0  0  0  0  0  0  0  0  0  0
   -0.2101    2.0325    5.8265 S   0  0  0  0  0  0  0  0  0  0  0  0
    8.4775    1.9124    2.3331 O   0  0  0  0  0  0  0  0  0  0  0  0
    8.9637    0.9950    3.3181 C   0  0  0  0  0  0  0  0  0  0  0  0
   10.4821    0.9886    3.2572 C   0  0  0  0  0  0  0  0  0  0  0  0
    8.1869    2.4433   -0.6505 S   0  0  0  0  0  0  0  0  0  0  0  0
    7.6502    3.6309   -1.2807 O   0  0  0  0  0  0  0  0  0  0  0  0
    9.5137    2.4207   -0.0877 O   0  0  0  0  0  0  0  0  0  0  0  0
    8.1136    1.2550   -1.8373 N   0  0  0  0  0  0  0  0  0  0  0  0
    8.8540   -0.0138   -1.7811 C   0  0  0  0  0  0  0  0  0  0  0  0
    8.8013   -0.7163   -0.4247 C   0  0  0  0  0  0  0  0  0  0  0  0
    9.5495   -2.0474   -0.4627 C   0  0  0  0  0  0  0  0  0  0  0  0
   10.9829   -1.8721   -0.9594 C   0  0  0  0  0  0  0  0  0  0  0  0
   11.0403   -1.1528   -2.3054 C   0  0  0  0  0  0  0  0  0  0  0  0
   10.2903    0.1774   -2.2719 C   0  0  0  0  0  0  0  0  0  0  0  0
    2.5728   -1.7596   -1.4474 H   0  0  0  0  0  0  0  0  0  0  0  0
    1.8029   -1.0973    0.0166 H   0  0  0  0  0  0  0  0  0  0  0  0
    3.4587   -1.7008    0.0970 H   0  0  0  0  0  0  0  0  0  0  0  0
    2.5529    0.7212   -1.5439 H   0  0  0  0  0  0  0  0  0  0  0  0
    4.2111    0.1179   -1.4460 H   0  0  0  0  0  0  0  0  0  0  0  0
    5.4690    1.8885   -1.0640 H   0  0  0  0  0  0  0  0  0  0  0  0
    6.3608    1.1202    3.7428 H   0  0  0  0  0  0  0  0  0  0  0  0
    0.6076    0.8481    3.1036 H   0  0  0  0  0  0  0  0  0  0  0  0
    1.4088    1.1415    1.5718 H   0  0  0  0  0  0  0  0  0  0  0  0
   -0.5406    2.6784    2.0570 H   0  0  0  0  0  0  0  0  0  0  0  0
    0.9618    3.4518    1.5881 H   0  0  0  0  0  0  0  0  0  0  0  0
    0.1418    4.7372    3.3604 H   0  0  0  0  0  0  0  0  0  0  0  0
    1.9507    3.7284    5.3163 H   0  0  0  0  0  0  0  0  0  0  0  0
    2.1795    4.9966    4.1509 H   0  0  0  0  0  0  0  0  0  0  0  0
    3.8844    3.1351    4.1124 H   0  0  0  0  0  0  0  0  0  0  0  0
    3.1942    3.5695    2.5486 H   0  0  0  0  0  0  0  0  0  0  0  0
   -4.3758    4.1692    5.4673 H   0  0  0  0  0  0  0  0  0  0  0  0
   -5.4606    2.9989    7.3794 H   0  0  0  0  0  0  0  0  0  0  0  0
   -4.2022    1.3129    8.6825 H   0  0  0  0  0  0  0  0  0  0  0  0
   -1.8423    0.7727    8.0985 H   0  0  0  0  0  0  0  0  0  0  0  0
    8.6015   -0.0238    3.1320 H   0  0  0  0  0  0  0  0  0  0  0  0
    8.6412    1.3250    4.3117 H   0  0  0  0  0  0  0  0  0  0  0  0
   10.8275    0.6610    2.2706 H   0  0  0  0  0  0  0  0  0  0  0  0
   10.8998    0.3182    4.0145 H   0  0  0  0  0  0  0  0  0  0  0  0
   10.8836    1.9945    3.4173 H   0  0  0  0  0  0  0  0  0  0  0  0
    7.9422    1.6522   -2.7604 H   0  0  0  0  0  0  0  0  0  0  0  0
    8.3482   -0.6731   -2.5008 H   0  0  0  0  0  0  0  0  0  0  0  0
    7.7630   -0.8970   -0.1266 H   0  0  0  0  0  0  0  0  0  0  0  0
    9.2559   -0.1013    0.3573 H   0  0  0  0  0  0  0  0  0  0  0  0
    9.0159   -2.7474   -1.1172 H   0  0  0  0  0  0  0  0  0  0  0  0
    9.5596   -2.4921    0.5397 H   0  0  0  0  0  0  0  0  0  0  0  0
   11.4637   -2.8532   -1.0460 H   0  0  0  0  0  0  0  0  0  0  0  0
   11.5557   -1.3004   -0.2188 H   0  0  0  0  0  0  0  0  0  0  0  0
   10.6042   -1.7952   -3.0804 H   0  0  0  0  0  0  0  0  0  0  0  0
   12.0857   -0.9795   -2.5860 H   0  0  0  0  0  0  0  0  0  0  0  0
   10.2904    0.6202   -3.2749 H   0  0  0  0  0  0  0  0  0  0  0  0
   10.8354    0.8765   -1.6279 H   0  0  0  0  0  0  0  0  0  0  0  0
  1  2  1  0  0  0  0
  1 41  1  0  0  0  0
  1 42  1  0  0  0  0
  1 43  1  0  0  0  0
  2  3  1  0  0  0  0
  2 44  1  0  0  0  0
  2 45  1  0  0  0  0
  3  4  1  0  0  0  0
  4  5  2  0  0  0  0
  4  9  1  0  0  0  0
  5  6  1  0  0  0  0
  5 46  1  0  0  0  0
  6  7  2  0  0  0  0
  6 31  1  0  0  0  0
  7  8  1  0  0  0  0
  7 28  1  0  0  0  0
  8  9  2  0  0  0  0
  8 47  1  0  0  0  0
  9 10  1  0  0  0  0
 10 11  2  0  0  0  0
 10 12  2  0  0  0  0
 10 13  1  0  0  0  0
 13 14  1  0  0  0  0
 13 18  1  0  0  0  0
 14 15  1  0  0  0  0
 14 48  1  0  0  0  0
 14 49  1  0  0  0  0
 15 16  1  0  0  0  0
 15 50  1  0  0  0  0
 15 51  1  0  0  0  0
 16 17  1  0  0  0  0
 16 19  1  0  0  0  0
 16 52  1  0  0  0  0
 17 18  1  0  0  0  0
 17 53  1  0  0  0  0
 17 54  1  0  0  0  0
 18 55  1  0  0  0  0
 18 56  1  0  0  0  0
 19 20  2  0  0  0  0
 19 27  1  0  0  0  0
 20 21  1  0  0  0  0
 21 22  2  0  0  0  0
 21 26  1  0  0  0  0
 22 23  1  0  0  0  0
 22 57  1  0  0  0  0
 23 24  2  0  0  0  0
 23 58  1  0  0  0  0
 24 25  1  0  0  0  0
 24 59  1  0  0  0  0
 25 26  2  0  0  0  0
 25 60  1  0  0  0  0
 26 27  1  0  0  0  0
 28 29  1  0  0  0  0
 29 30  1  0  0  0  0
 29 61  1  0  0  0  0
 29 62  1  0  0  0  0
 30 63  1  0  0  0  0
 30 64  1  0  0  0  0
 30 65  1  0  0  0  0
 31 32  2  0  0  0  0
 31 33  2  0  0  0  0
 31 34  1  0  0  0  0
 34 35  1  0  0  0  0
 34 66  1  0  0  0  0
 35 36  1  0  0  0  0
 35 40  1  0  0  0  0
 35 67  1  0  0  0  0
 36 37  1  0  0  0  0
 36 68  1  0  0  0  0
 36 69  1  0  0  0  0
 37 38  1  0  0  0  0
 37 70  1  0  0  0  0
 37 71  1  0  0  0  0
 38 39  1  0  0  0  0
 38 72  1  0  0  0  0
 38 73  1  0  0  0  0
 39 40  1  0  0  0  0
 39 74  1  0  0  0  0
 39 75  1  0  0  0  0
 40 76  1  0  0  0  0
 40 77  1  0  0  0  0
M  END
