
 OpenBabel10072620223D

 48 50  0  0  0  0  0  0  0  0999 V2000
   -1.0948    1.8516    1.3797 C   0  0  0  0  0  0  0  0  0  0  0  0
    0.2974    1.3902    0.9549 C   0  0  0  0  0  0  0  0  0  0  0  0
    0.2785   -0.0639    0.4746 C   0  0  0  0  0  0  0  0  0  0  0  0
    1.6553   -0.5096   -0.0055 C   0  0  0  0  0  0  0  0  0  0  0  0
    2.2283    0.4034   -1.0267 N   0  0  0  0  0  0  0  0  0  0  0  0
    2.2366    1.8250   -0.5977 C   0  0  0  0  0  0  0  0  0  0  0  0
    0.8528    2.2883   -0.1561 C   0  0  0  0  0  0  0  0  0  0  0  0
    1.8380    0.1308   -2.6632 S   0  0  0  0  0  0  0  0  0  0  0  0
    0.3947    0.1221   -2.7733 O   0  0  0  0  0  0  0  0  0  0  0  0
    2.6501    1.0067   -3.4801 O   0  0  0  0  0  0  0  0  0  0  0  0
    2.4256   -1.5190   -2.9501 C   0  0  0  0  0  0  0  0  0  0  0  0
    1.5721   -2.4763   -3.4962 C   0  0  0  0  0  0  0  0  0  0  0  0
    2.0281   -3.7868   -3.6827 C   0  0  0  0  0  0  0  0  0  0  0  0
    3.3299   -4.1469   -3.3274 C   0  0  0  0  0  0  0  0  0  0  0  0
    4.1700   -3.1707   -2.7669 C   0  0  0  0  0  0  0  0  0  0  0  0
    3.7290   -1.8569   -2.5873 C   0  0  0  0  0  0  0  0  0  0  0  0
    3.8583   -5.4520   -3.4198 N   0  0  0  0  0  0  0  0  0  0  0  0
    3.4348   -6.5833   -4.0781 C   0  0  0  0  0  0  0  0  0  0  0  0
    2.3091   -6.7373   -5.3031 S   0  0  0  0  0  0  0  0  0  0  0  0
    4.0437   -7.7562   -3.6651 N   0  0  0  0  0  0  0  0  0  0  0  0
    5.0125   -7.9515   -2.6895 C   0  0  0  0  0  0  0  0  0  0  0  0
    5.6188   -7.0209   -2.1612 O   0  0  0  0  0  0  0  0  0  0  0  0
    5.2632   -9.3428   -2.3833 C   0  0  0  0  0  0  0  0  0  0  0  0
    6.1513   -9.9339   -1.5048 C   0  0  0  0  0  0  0  0  0  0  0  0
    5.9407  -11.3316   -1.5920 C   0  0  0  0  0  0  0  0  0  0  0  0
    4.9447  -11.5113   -2.5235 C   0  0  0  0  0  0  0  0  0  0  0  0
    4.5278  -10.3127   -3.0142 O   0  0  0  0  0  0  0  0  0  0  0  0
    4.2437  -13.1623   -3.0360 Br  0  0  0  0  0  0  0  0  0  0  0  0
   -1.4907    1.2174    2.1801 H   0  0  0  0  0  0  0  0  0  0  0  0
   -1.7986    1.8202    0.5412 H   0  0  0  0  0  0  0  0  0  0  0  0
   -1.0613    2.8804    1.7545 H   0  0  0  0  0  0  0  0  0  0  0  0
    0.9575    1.4608    1.8302 H   0  0  0  0  0  0  0  0  0  0  0  0
   -0.4547   -0.1809   -0.3317 H   0  0  0  0  0  0  0  0  0  0  0  0
   -0.0468   -0.7215    1.2899 H   0  0  0  0  0  0  0  0  0  0  0  0
    1.6005   -1.5353   -0.3809 H   0  0  0  0  0  0  0  0  0  0  0  0
    2.3528   -0.5398    0.8411 H   0  0  0  0  0  0  0  0  0  0  0  0
    2.6118    2.4711   -1.3982 H   0  0  0  0  0  0  0  0  0  0  0  0
    2.9503    1.9288    0.2288 H   0  0  0  0  0  0  0  0  0  0  0  0
    0.1682    2.2859   -1.0135 H   0  0  0  0  0  0  0  0  0  0  0  0
    0.9134    3.3239    0.1981 H   0  0  0  0  0  0  0  0  0  0  0  0
    0.5524   -2.2180   -3.7755 H   0  0  0  0  0  0  0  0  0  0  0  0
    1.3173   -4.5077   -4.0681 H   0  0  0  0  0  0  0  0  0  0  0  0
    5.1876   -3.4203   -2.4727 H   0  0  0  0  0  0  0  0  0  0  0  0
    4.3952   -1.1119   -2.1584 H   0  0  0  0  0  0  0  0  0  0  0  0
    4.7408   -5.5807   -2.9222 H   0  0  0  0  0  0  0  0  0  0  0  0
    3.6686   -8.5947   -4.0943 H   0  0  0  0  0  0  0  0  0  0  0  0
    6.8556   -9.4093   -0.8720 H   0  0  0  0  0  0  0  0  0  0  0  0
    6.4488  -12.1104   -1.0397 H   0  0  0  0  0  0  0  0  0  0  0  0
  1  2  1  0  0  0  0
  1 29  1  0  0  0  0
  1 30  1  0  0  0  0
  1 31  1  0  0  0  0
  2  3  1  0  0  0  0
  2  7  1  0  0  0  0
  2 32  1  0  0  0  0
  3  4  1  0  0  0  0
  3 33  1  0  0  0  0
  3 34  1  0  0  0  0
  4  5  1  0  0  0  0
  4 35  1  0  0  0  0
  4 36  1  0  0  0  0
  5  6  1  0  0  0  0
  5  8  1  0  0  0  0
  6  7  1  0  0  0  0
  6 37  1  0  0  0  0
  6 38  1  0  0  0  0
  7 39  1  0  0  0  0
  7 40  1  0  0  0  0
  8  9  2  0  0  0  0
  8 10  2  0  0  0  0
  8 11  1  0  0  0  0
 11 12  2  0  0  0  0
 11 16  1  0  0  0  0
 12 13  1  0  0  0  0
 12 41  1  0  0  0  0
 13 14  2  0  0  0  0
 13 42  1  0  0  0  0
 14 15  1  0  0  0  0
 14 17  1  0  0  0  0
 15 16  2  0  0  0  0
 15 43  1  0  0  0  0
 16 44  1  0  0  0  0
 17 18  1  0  0  0  0
 17 45  1  0  0  0  0
 18 19  2  0  0  0  0
 18 20  1  0  0  0  0
 20 21  1  0  0  0  0
 20 46  1  0  0  0  0
 21 22  2  0  0  0  0
 21 23  1  0  0  0  0
 23 24  2  0  0  0  0
 23 27  1  0  0  0  0
 24 25  1  0  0  0  0
 24 47  1  0  0  0  0
 25 26  2  0  0  0  0
 25 48  1  0  0  0  0
 26 27  1  0  0  0  0
 26 28  1  0  0  0  0
M  END
