
 OpenBabel10072620073D

 39 41  0  0  0  0  0  0  0  0999 V2000
    0.2650   -1.4189    2.0733 C   0  0  0  0  0  0  0  0  0  0  0  0
    0.0827   -0.4017    1.0492 N   0  0  0  0  0  0  0  0  0  0  0  0
    0.8389    0.7493    1.0830 C   0  0  0  0  0  0  0  0  0  0  0  0
    0.6660    1.7243    0.1874 C   0  0  0  0  0  0  0  0  0  0  0  0
   -0.3636    1.5844   -0.8434 C   0  0  0  0  0  0  0  0  0  0  0  0
   -0.6845    2.5484   -1.5373 O   0  0  0  0  0  0  0  0  0  0  0  0
   -0.9775    0.3424   -0.9195 N   0  0  0  0  0  0  0  0  0  0  0  0
   -0.8631   -0.6509    0.0541 C   0  0  0  0  0  0  0  0  0  0  0  0
   -1.5580   -1.6671    0.0500 O   0  0  0  0  0  0  0  0  0  0  0  0
   -1.9688    0.1390   -1.9561 C   0  0  0  0  0  0  0  0  0  0  0  0
    1.6437    3.1412    0.2264 S   0  0  0  0  0  0  0  0  0  0  0  0
    2.4450    3.1286    1.4366 O   0  0  0  0  0  0  0  0  0  0  0  0
    2.3267    3.2504   -1.0482 O   0  0  0  0  0  0  0  0  0  0  0  0
    0.6009    4.4987    0.2951 N   0  0  0  0  0  0  0  0  0  0  0  0
   -0.2490    4.6010    1.4529 C   0  0  0  0  0  0  0  0  0  0  0  0
   -1.5581    4.1167    1.3486 C   0  0  0  0  0  0  0  0  0  0  0  0
   -2.3894    4.0920    2.4643 C   0  0  0  0  0  0  0  0  0  0  0  0
   -1.9189    4.5576    3.6904 C   0  0  0  0  0  0  0  0  0  0  0  0
   -0.6190    5.0725    3.8160 C   0  0  0  0  0  0  0  0  0  0  0  0
   -0.1620    5.5598    5.0528 C   0  0  0  0  0  0  0  0  0  0  0  0
    1.1177    6.0986    5.1825 C   0  0  0  0  0  0  0  0  0  0  0  0
    1.9559    6.1626    4.0774 C   0  0  0  0  0  0  0  0  0  0  0  0
    1.5170    5.6787    2.8442 C   0  0  0  0  0  0  0  0  0  0  0  0
    0.2346    5.1084    2.6850 C   0  0  0  0  0  0  0  0  0  0  0  0
    1.0383   -1.1349    2.7926 H   0  0  0  0  0  0  0  0  0  0  0  0
    0.5453   -2.3622    1.5931 H   0  0  0  0  0  0  0  0  0  0  0  0
   -0.6835   -1.5625    2.6004 H   0  0  0  0  0  0  0  0  0  0  0  0
    1.5790    0.8264    1.8770 H   0  0  0  0  0  0  0  0  0  0  0  0
   -1.7814    0.7861   -2.8175 H   0  0  0  0  0  0  0  0  0  0  0  0
   -2.9532    0.3731   -1.5396 H   0  0  0  0  0  0  0  0  0  0  0  0
   -1.9624   -0.9026   -2.2903 H   0  0  0  0  0  0  0  0  0  0  0  0
    0.1084    4.5727   -0.6012 H   0  0  0  0  0  0  0  0  0  0  0  0
   -1.9489    3.7620    0.3991 H   0  0  0  0  0  0  0  0  0  0  0  0
   -3.4059    3.7139    2.3812 H   0  0  0  0  0  0  0  0  0  0  0  0
   -2.5864    4.5328    4.5501 H   0  0  0  0  0  0  0  0  0  0  0  0
   -0.8059    5.5302    5.9297 H   0  0  0  0  0  0  0  0  0  0  0  0
    1.4557    6.4754    6.1439 H   0  0  0  0  0  0  0  0  0  0  0  0
    2.9525    6.5870    4.1687 H   0  0  0  0  0  0  0  0  0  0  0  0
    2.1925    5.7515    1.9938 H   0  0  0  0  0  0  0  0  0  0  0  0
  1  2  1  0  0  0  0
  1 25  1  0  0  0  0
  1 26  1  0  0  0  0
  1 27  1  0  0  0  0
  2  3  1  0  0  0  0
  2  8  1  0  0  0  0
  3  4  2  0  0  0  0
  3 28  1  0  0  0  0
  4  5  1  0  0  0  0
  4 11  1  0  0  0  0
  5  6  2  0  0  0  0
  5  7  1  0  0  0  0
  7  8  1  0  0  0  0
  7 10  1  0  0  0  0
  8  9  2  0  0  0  0
 10 29  1  0  0  0  0
 10 30  1  0  0  0  0
 10 31  1  0  0  0  0
 11 12  2  0  0  0  0
 11 13  2  0  0  0  0
 11 14  1  0  0  0  0
 14 15  1  0  0  0  0
 14 32  1  0  0  0  0
 15 16  2  0  0  0  0
 15 24  1  0  0  0  0
 16 17  1  0  0  0  0
 16 33  1  0  0  0  0
 17 18  2  0  0  0  0
 17 34  1  0  0  0  0
 18 19  1  0  0  0  0
 18 35  1  0  0  0  0
 19 20  2  0  0  0  0
 19 24  1  0  0  0  0
 20 21  1  0  0  0  0
 20 36  1  0  0  0  0
 21 22  2  0  0  0  0
 21 37  1  0  0  0  0
 22 23  1  0  0  0  0
 22 38  1  0  0  0  0
 23 24  2  0  0  0  0
 23 39  1  0  0  0  0
M  END
