
 OpenBabel10072620163D

 35 35  0  0  1  0  0  0  0  0999 V2000
    1.1662    0.6543    0.1442 C   0  0  0  0  0  0  0  0  0  0  0  0
    2.9637    0.7080   -0.0527 S   0  0  0  0  0  0  0  0  0  0  0  0
    3.3193   -1.1045   -0.0818 C   0  0  3  0  0  0  0  0  0  0  0  0
    2.7292   -1.8075   -1.3275 C   0  0  0  0  0  0  0  0  0  0  0  0
    3.0985   -1.1789   -2.5911 N   0  0  0  0  0  0  0  0  0  0  0  0
    2.7657   -1.7809   -3.7853 C   0  0  0  0  0  0  0  0  0  0  0  0
    2.2383   -2.8932   -3.8104 O   0  0  0  0  0  0  0  0  0  0  0  0
    3.0692   -1.0671   -4.9435 N   0  0  0  0  0  0  0  0  0  0  0  0
    2.7355   -1.6535   -6.2421 C   0  0  0  0  0  0  0  0  0  0  0  0
    1.2891   -1.3746   -6.6309 C   0  0  0  0  0  0  0  0  0  0  0  0
    0.9006   -2.1252   -8.1967 Cl  0  0  0  0  0  0  0  0  0  0  0  0
    3.5763    0.2356   -4.8555 N   0  0  0  0  0  0  0  0  0  0  0  0
    3.6606    0.8231   -5.9381 O   0  0  0  0  0  0  0  0  0  0  0  0
    4.7587   -1.3927    0.0768 N   0  0  0  0  0  0  0  0  0  0  0  0
    5.7314   -0.6988   -0.6293 C   0  0  0  0  0  0  0  0  0  0  0  0
    7.0252   -1.0044   -0.5334 C   0  0  0  0  0  0  0  0  0  0  0  0
    7.4540   -2.1169    0.3317 C   0  0  0  0  0  0  0  0  0  0  0  0
    8.6276   -2.4444    0.4620 O   0  0  0  0  0  0  0  0  0  0  0  0
    6.4341   -2.7720    0.9699 N   0  0  0  0  0  0  0  0  0  0  0  0
    5.0944   -2.4995    0.8576 C   0  0  0  0  0  0  0  0  0  0  0  0
    4.2692   -3.2170    1.4185 O   0  0  0  0  0  0  0  0  0  0  0  0
    7.9755   -0.3378   -1.2132 F   0  0  0  0  0  0  0  0  0  0  0  0
    0.7950    1.6715    0.2925 H   0  0  0  0  0  0  0  0  0  0  0  0
    0.8925    0.0548    1.0158 H   0  0  0  0  0  0  0  0  0  0  0  0
    0.6921    0.2467   -0.7514 H   0  0  0  0  0  0  0  0  0  0  0  0
    2.8052   -1.5105    0.7962 H   0  0  0  0  0  0  0  0  0  0  0  0
    1.6339   -1.8118   -1.2816 H   0  0  0  0  0  0  0  0  0  0  0  0
    3.0458   -2.8575   -1.3608 H   0  0  0  0  0  0  0  0  0  0  0  0
    3.1405   -0.1665   -2.5865 H   0  0  0  0  0  0  0  0  0  0  0  0
    2.8918   -2.7378   -6.1775 H   0  0  0  0  0  0  0  0  0  0  0  0
    3.4330   -1.2911   -7.0067 H   0  0  0  0  0  0  0  0  0  0  0  0
    1.1031   -0.3003   -6.7236 H   0  0  0  0  0  0  0  0  0  0  0  0
    0.5937   -1.7767   -5.8878 H   0  0  0  0  0  0  0  0  0  0  0  0
    5.4214    0.1134   -1.2773 H   0  0  0  0  0  0  0  0  0  0  0  0
    6.6891   -3.5626    1.5423 H   0  0  0  0  0  0  0  0  0  0  0  0
  1  2  1  0  0  0  0
  1 23  1  0  0  0  0
  1 24  1  0  0  0  0
  1 25  1  0  0  0  0
  2  3  1  0  0  0  0
  3  4  1  0  0  0  0
  3 14  1  0  0  0  0
  3 26  1  0  0  0  0
  4  5  1  0  0  0  0
  4 27  1  0  0  0  0
  4 28  1  0  0  0  0
  5  6  1  0  0  0  0
  5 29  1  0  0  0  0
  6  7  2  0  0  0  0
  6  8  1  0  0  0  0
  8  9  1  0  0  0  0
  8 12  1  0  0  0  0
  9 10  1  0  0  0  0
  9 30  1  0  0  0  0
  9 31  1  0  0  0  0
 10 11  1  0  0  0  0
 10 32  1  0  0  0  0
 10 33  1  0  0  0  0
 12 13  2  0  0  0  0
 14 15  1  0  0  0  0
 14 20  1  0  0  0  0
 15 16  2  0  0  0  0
 15 34  1  0  0  0  0
 16 17  1  0  0  0  0
 16 22  1  0  0  0  0
 17 18  2  0  0  0  0
 17 19  1  0  0  0  0
 19 20  1  0  0  0  0
 19 35  1  0  0  0  0
 20 21  2  0  0  0  0
M  END
