
 OpenBabel10072619593D

129129  0  0  0  0  0  0  0  0999 V2000
    4.1321  -19.3799   -6.3308 C   0  0  0  0  0  0  0  0  0  0  0  0
    4.6091  -18.0593   -5.7467 C   0  0  0  0  0  0  0  0  0  0  0  0
    5.8244  -18.2557   -4.8404 C   0  0  0  0  0  0  0  0  0  0  0  0
    6.3036  -16.9273   -4.2531 C   0  0  0  0  0  0  0  0  0  0  0  0
    7.5187  -17.1256   -3.3449 C   0  0  0  0  0  0  0  0  0  0  0  0
    7.9938  -15.7965   -2.7566 C   0  0  0  0  0  0  0  0  0  0  0  0
    9.2068  -15.9896   -1.8447 C   0  0  0  0  0  0  0  0  0  0  0  0
    9.6725  -14.6567   -1.2582 C   0  0  0  0  0  0  0  0  0  0  0  0
   10.8885  -14.8352   -0.3464 C   0  0  0  0  0  0  0  0  0  0  0  0
   11.3454  -13.4899    0.2188 C   0  0  0  0  0  0  0  0  0  0  0  0
   12.5664  -13.6349    1.1295 C   0  0  0  0  0  0  0  0  0  0  0  0
   13.0212  -12.2671    1.6408 C   0  0  0  0  0  0  0  0  0  0  0  0
   14.2245  -12.3719    2.5793 C   0  0  0  0  0  0  0  0  0  0  0  0
   14.6887  -10.9804    3.0140 C   0  0  0  0  0  0  0  0  0  0  0  0
   15.8640  -11.0444    3.9923 C   0  0  0  0  0  0  0  0  0  0  0  0
   16.3371   -9.6338    4.3554 C   0  0  0  0  0  0  0  0  0  0  0  0
   17.4362   -9.5979    5.4158 C   0  0  0  0  0  0  0  0  0  0  0  0
   18.7202  -10.2766    4.9950 C   0  0  0  0  0  0  0  0  0  0  0  0
   18.8854  -11.5445    5.1948 N   0  0  0  0  0  0  0  0  0  0  0  0
   20.2303  -11.9184    4.7377 C   0  0  0  0  0  0  0  0  0  0  0  0
   20.7605  -10.7363    3.9567 C   0  0  0  0  0  0  0  0  0  0  0  0
   19.8522   -9.6071    4.4066 N   0  3  0  0  0  0  0  0  0  0  0  0
   20.5151   -8.6419    5.3900 C   0  0  0  0  0  0  0  0  0  0  0  0
   20.9556   -9.2907    6.7203 C   0  0  0  0  0  0  0  0  0  0  0  0
   21.4768   -8.3187    7.6652 N   0  0  0  0  0  0  0  0  0  0  0  0
   20.6530   -7.3717    8.2285 C   0  0  0  0  0  0  0  0  0  0  0  0
   19.4450   -7.3493    8.0068 O   0  0  0  0  0  0  0  0  0  0  0  0
   21.3359   -6.3779    9.1460 C   0  0  0  0  0  0  0  0  0  0  0  0
   22.5101   -5.6399    8.5039 C   0  0  0  0  0  0  0  0  0  0  0  0
   22.1093   -4.8438    7.2587 C   0  0  0  0  0  0  0  0  0  0  0  0
   23.3195   -4.1210    6.6650 C   0  0  0  0  0  0  0  0  0  0  0  0
   22.9542   -3.3607    5.3896 C   0  0  0  0  0  0  0  0  0  0  0  0
   24.1836   -2.6796    4.7856 C   0  0  0  0  0  0  0  0  0  0  0  0
   23.8344   -1.9251    3.5020 C   0  0  0  0  0  0  0  0  0  0  0  0
   25.0743   -1.2633    2.8970 C   0  0  0  0  0  0  0  0  0  0  0  0
   24.7339   -0.5016    1.6158 C   0  0  0  0  0  0  0  0  0  0  0  0
   25.9748    0.1617    1.0137 C   0  0  0  0  0  0  0  0  0  0  0  0
   25.6247    0.9300   -0.2619 C   0  0  0  0  0  0  0  0  0  0  0  0
   26.8550    1.6046   -0.8725 C   0  0  0  0  0  0  0  0  0  0  0  0
   26.4878    2.3734   -2.1440 C   0  0  0  0  0  0  0  0  0  0  0  0
   27.7099    3.0541   -2.7641 C   0  0  0  0  0  0  0  0  0  0  0  0
   27.3315    3.8192   -4.0341 C   0  0  0  0  0  0  0  0  0  0  0  0
   28.5458    4.5023   -4.6626 C   0  0  0  0  0  0  0  0  0  0  0  0
   28.1638    5.2599   -5.9246 C   0  0  0  0  0  0  0  0  0  0  0  0
   19.4226   -8.7460    3.1643 C   0  0  0  0  0  0  0  0  0  0  0  0
   20.5410   -8.0689    2.3204 C   0  0  0  0  0  0  0  0  0  0  0  0
   21.6931   -8.5637    2.4900 O   0  0  0  0  0  0  0  0  0  0  0  0
   20.1560   -7.1016    1.6175 O   0  5  0  0  0  0  0  0  0  0  0  0
    3.2625  -19.2179   -6.9756 H   0  0  0  0  0  0  0  0  0  0  0  0
    3.8423  -20.0772   -5.5381 H   0  0  0  0  0  0  0  0  0  0  0  0
    4.9178  -19.8494   -6.9315 H   0  0  0  0  0  0  0  0  0  0  0  0
    3.7907  -17.6008   -5.1793 H   0  0  0  0  0  0  0  0  0  0  0  0
    4.8605  -17.3742   -6.5649 H   0  0  0  0  0  0  0  0  0  0  0  0
    6.6374  -18.7191   -5.4126 H   0  0  0  0  0  0  0  0  0  0  0  0
    5.5676  -18.9456   -4.0273 H   0  0  0  0  0  0  0  0  0  0  0  0
    5.4899  -16.4637   -3.6822 H   0  0  0  0  0  0  0  0  0  0  0  0
    6.5613  -16.2381   -5.0665 H   0  0  0  0  0  0  0  0  0  0  0  0
    8.3332  -17.5871   -3.9163 H   0  0  0  0  0  0  0  0  0  0  0  0
    7.2616  -17.8161   -2.5325 H   0  0  0  0  0  0  0  0  0  0  0  0
    7.1776  -15.3344   -2.1880 H   0  0  0  0  0  0  0  0  0  0  0  0
    8.2518  -15.1068   -3.5696 H   0  0  0  0  0  0  0  0  0  0  0  0
   10.0256  -16.4472   -2.4129 H   0  0  0  0  0  0  0  0  0  0  0  0
    8.9509  -16.6795   -1.0316 H   0  0  0  0  0  0  0  0  0  0  0  0
    8.8528  -14.1988   -0.6909 H   0  0  0  0  0  0  0  0  0  0  0  0
    9.9247  -13.9667   -2.0728 H   0  0  0  0  0  0  0  0  0  0  0  0
   11.7083  -15.2951   -0.9115 H   0  0  0  0  0  0  0  0  0  0  0  0
   10.6377  -15.5163    0.4758 H   0  0  0  0  0  0  0  0  0  0  0  0
   10.5231  -13.0334    0.7836 H   0  0  0  0  0  0  0  0  0  0  0  0
   11.5840  -12.8097   -0.6082 H   0  0  0  0  0  0  0  0  0  0  0  0
   13.3855  -14.1131    0.5790 H   0  0  0  0  0  0  0  0  0  0  0  0
   12.3200  -14.2859    1.9766 H   0  0  0  0  0  0  0  0  0  0  0  0
   12.1914  -11.7793    2.1669 H   0  0  0  0  0  0  0  0  0  0  0  0
   13.2785  -11.6289    0.7865 H   0  0  0  0  0  0  0  0  0  0  0  0
   15.0456  -12.8931    2.0727 H   0  0  0  0  0  0  0  0  0  0  0  0
   13.9552  -12.9672    3.4598 H   0  0  0  0  0  0  0  0  0  0  0  0
   13.8538  -10.4449    3.4826 H   0  0  0  0  0  0  0  0  0  0  0  0
   14.9829  -10.4047    2.1273 H   0  0  0  0  0  0  0  0  0  0  0  0
   16.6838  -11.6074    3.5323 H   0  0  0  0  0  0  0  0  0  0  0  0
   15.5614  -11.5817    4.8990 H   0  0  0  0  0  0  0  0  0  0  0  0
   15.4839   -9.0587    4.7369 H   0  0  0  0  0  0  0  0  0  0  0  0
   16.6707   -9.1243    3.4455 H   0  0  0  0  0  0  0  0  0  0  0  0
   17.0799  -10.0814    6.3334 H   0  0  0  0  0  0  0  0  0  0  0  0
   17.6516   -8.5555    5.6703 H   0  0  0  0  0  0  0  0  0  0  0  0
   20.1875  -12.8170    4.1141 H   0  0  0  0  0  0  0  0  0  0  0  0
   20.8625  -12.1410    5.6036 H   0  0  0  0  0  0  0  0  0  0  0  0
   20.6146  -10.9070    2.8840 H   0  0  0  0  0  0  0  0  0  0  0  0
   21.8084  -10.5077    4.1713 H   0  0  0  0  0  0  0  0  0  0  0  0
   19.8061   -7.8261    5.5675 H   0  0  0  0  0  0  0  0  0  0  0  0
   21.3933   -8.2042    4.9054 H   0  0  0  0  0  0  0  0  0  0  0  0
   21.7521  -10.0221    6.5535 H   0  0  0  0  0  0  0  0  0  0  0  0
   20.1165   -9.7982    7.2065 H   0  0  0  0  0  0  0  0  0  0  0  0
   22.4687   -8.3097    7.8725 H   0  0  0  0  0  0  0  0  0  0  0  0
   21.6788   -6.9191   10.0354 H   0  0  0  0  0  0  0  0  0  0  0  0
   20.5850   -5.6524    9.4800 H   0  0  0  0  0  0  0  0  0  0  0  0
   23.3065   -6.3468    8.2442 H   0  0  0  0  0  0  0  0  0  0  0  0
   22.9355   -4.9546    9.2472 H   0  0  0  0  0  0  0  0  0  0  0  0
   21.3327   -4.1150    7.5191 H   0  0  0  0  0  0  0  0  0  0  0  0
   21.6843   -5.5151    6.5036 H   0  0  0  0  0  0  0  0  0  0  0  0
   24.1070   -4.8510    6.4416 H   0  0  0  0  0  0  0  0  0  0  0  0
   23.7285   -3.4229    7.4053 H   0  0  0  0  0  0  0  0  0  0  0  0
   22.1881   -2.6092    5.6155 H   0  0  0  0  0  0  0  0  0  0  0  0
   22.5229   -4.0545    4.6576 H   0  0  0  0  0  0  0  0  0  0  0  0
   24.9507   -3.4334    4.5695 H   0  0  0  0  0  0  0  0  0  0  0  0
   24.6130   -1.9828    5.5159 H   0  0  0  0  0  0  0  0  0  0  0  0
   23.0771   -1.1621    3.7193 H   0  0  0  0  0  0  0  0  0  0  0  0
   23.3956   -2.6189    2.7746 H   0  0  0  0  0  0  0  0  0  0  0  0
   25.8285   -2.0291    2.6785 H   0  0  0  0  0  0  0  0  0  0  0  0
   25.5151   -0.5742    3.6275 H   0  0  0  0  0  0  0  0  0  0  0  0
   23.9778    0.2628    1.8327 H   0  0  0  0  0  0  0  0  0  0  0  0
   24.2953   -1.1912    0.8843 H   0  0  0  0  0  0  0  0  0  0  0  0
   26.7282   -0.6028    0.7884 H   0  0  0  0  0  0  0  0  0  0  0  0
   26.4182    0.8471    1.7462 H   0  0  0  0  0  0  0  0  0  0  0  0
   24.8668    1.6895   -0.0343 H   0  0  0  0  0  0  0  0  0  0  0  0
   25.1833    0.2424   -0.9937 H   0  0  0  0  0  0  0  0  0  0  0  0
   27.6128    0.8470   -1.1062 H   0  0  0  0  0  0  0  0  0  0  0  0
   27.2984    2.2922   -0.1421 H   0  0  0  0  0  0  0  0  0  0  0  0
   25.7279    3.1286   -1.9084 H   0  0  0  0  0  0  0  0  0  0  0  0
   26.0428    1.6845   -2.8724 H   0  0  0  0  0  0  0  0  0  0  0  0
   28.4697    2.2996   -3.0011 H   0  0  0  0  0  0  0  0  0  0  0  0
   28.1544    3.7445   -2.0369 H   0  0  0  0  0  0  0  0  0  0  0  0
   26.5706    4.5722   -3.7950 H   0  0  0  0  0  0  0  0  0  0  0  0
   26.8845    3.1276   -4.7587 H   0  0  0  0  0  0  0  0  0  0  0  0
   29.3087    3.7547   -4.9088 H   0  0  0  0  0  0  0  0  0  0  0  0
   28.9940    5.2001   -3.9459 H   0  0  0  0  0  0  0  0  0  0  0  0
   27.7406    4.5843   -6.6748 H   0  0  0  0  0  0  0  0  0  0  0  0
   29.0446    5.7415   -6.3602 H   0  0  0  0  0  0  0  0  0  0  0  0
   27.4246    6.0373   -5.7070 H   0  0  0  0  0  0  0  0  0  0  0  0
   18.7465   -7.9700    3.5402 H   0  0  0  0  0  0  0  0  0  0  0  0
   18.8585   -9.4165    2.5049 H   0  0  0  0  0  0  0  0  0  0  0  0
  1  2  1  0  0  0  0
  1 49  1  0  0  0  0
  1 50  1  0  0  0  0
  1 51  1  0  0  0  0
  2  3  1  0  0  0  0
  2 52  1  0  0  0  0
  2 53  1  0  0  0  0
  3  4  1  0  0  0  0
  3 54  1  0  0  0  0
  3 55  1  0  0  0  0
  4  5  1  0  0  0  0
  4 56  1  0  0  0  0
  4 57  1  0  0  0  0
  5  6  1  0  0  0  0
  5 58  1  0  0  0  0
  5 59  1  0  0  0  0
  6  7  1  0  0  0  0
  6 60  1  0  0  0  0
  6 61  1  0  0  0  0
  7  8  1  0  0  0  0
  7 62  1  0  0  0  0
  7 63  1  0  0  0  0
  8  9  1  0  0  0  0
  8 64  1  0  0  0  0
  8 65  1  0  0  0  0
  9 10  1  0  0  0  0
  9 66  1  0  0  0  0
  9 67  1  0  0  0  0
 10 11  1  0  0  0  0
 10 68  1  0  0  0  0
 10 69  1  0  0  0  0
 11 12  1  0  0  0  0
 11 70  1  0  0  0  0
 11 71  1  0  0  0  0
 12 13  1  0  0  0  0
 12 72  1  0  0  0  0
 12 73  1  0  0  0  0
 13 14  1  0  0  0  0
 13 74  1  0  0  0  0
 13 75  1  0  0  0  0
 14 15  1  0  0  0  0
 14 76  1  0  0  0  0
 14 77  1  0  0  0  0
 15 16  1  0  0  0  0
 15 78  1  0  0  0  0
 15 79  1  0  0  0  0
 16 17  1  0  0  0  0
 16 80  1  0  0  0  0
 16 81  1  0  0  0  0
 17 18  1  0  0  0  0
 17 82  1  0  0  0  0
 17 83  1  0  0  0  0
 18 19  2  0  0  0  0
 18 22  1  0  0  0  0
 19 20  1  0  0  0  0
 20 21  1  0  0  0  0
 20 84  1  0  0  0  0
 20 85  1  0  0  0  0
 21 22  1  0  0  0  0
 21 86  1  0  0  0  0
 21 87  1  0  0  0  0
 22 23  1  0  0  0  0
 22 45  1  0  0  0  0
 23 24  1  0  0  0  0
 23 88  1  0  0  0  0
 23 89  1  0  0  0  0
 24 25  1  0  0  0  0
 24 90  1  0  0  0  0
 24 91  1  0  0  0  0
 25 26  1  0  0  0  0
 25 92  1  0  0  0  0
 26 27  2  0  0  0  0
 26 28  1  0  0  0  0
 28 29  1  0  0  0  0
 28 93  1  0  0  0  0
 28 94  1  0  0  0  0
 29 30  1  0  0  0  0
 29 95  1  0  0  0  0
 29 96  1  0  0  0  0
 30 31  1  0  0  0  0
 30 97  1  0  0  0  0
 30 98  1  0  0  0  0
 31 32  1  0  0  0  0
 31 99  1  0  0  0  0
 31100  1  0  0  0  0
 32 33  1  0  0  0  0
 32101  1  0  0  0  0
 32102  1  0  0  0  0
 33 34  1  0  0  0  0
 33103  1  0  0  0  0
 33104  1  0  0  0  0
 34 35  1  0  0  0  0
 34105  1  0  0  0  0
 34106  1  0  0  0  0
 35 36  1  0  0  0  0
 35107  1  0  0  0  0
 35108  1  0  0  0  0
 36 37  1  0  0  0  0
 36109  1  0  0  0  0
 36110  1  0  0  0  0
 37 38  1  0  0  0  0
 37111  1  0  0  0  0
 37112  1  0  0  0  0
 38 39  1  0  0  0  0
 38113  1  0  0  0  0
 38114  1  0  0  0  0
 39 40  1  0  0  0  0
 39115  1  0  0  0  0
 39116  1  0  0  0  0
 40 41  1  0  0  0  0
 40117  1  0  0  0  0
 40118  1  0  0  0  0
 41 42  1  0  0  0  0
 41119  1  0  0  0  0
 41120  1  0  0  0  0
 42 43  1  0  0  0  0
 42121  1  0  0  0  0
 42122  1  0  0  0  0
 43 44  1  0  0  0  0
 43123  1  0  0  0  0
 43124  1  0  0  0  0
 44125  1  0  0  0  0
 44126  1  0  0  0  0
 44127  1  0  0  0  0
 45 46  1  0  0  0  0
 45128  1  0  0  0  0
 45129  1  0  0  0  0
 46 47  2  0  0  0  0
 46 48  1  0  0  0  0
M  CHG  2  22   1  48  -1
M  END
