
 OpenBabel10072619593D

 30 31  0  0  0  0  0  0  0  0999 V2000
   -3.2576    1.1348   -0.0300 C   0  0  0  0  0  0  0  0  0  0  0  0
   -1.8409    0.6803   -0.0186 C   0  0  0  0  0  0  0  0  0  0  0  0
   -0.8043    1.4876    0.0195 N   0  0  0  0  0  0  0  0  0  0  0  0
    0.3666    0.7490    0.0250 C   0  0  0  0  0  0  0  0  0  0  0  0
    0.2030   -0.6352   -0.0108 C   0  0  0  0  0  0  0  0  0  0  0  0
   -1.4807   -0.9966   -0.0549 S   0  0  0  0  0  0  0  0  0  0  0  0
    1.2992   -1.5190   -0.0100 C   0  0  0  0  0  0  0  0  0  0  0  0
    2.5926   -0.9858    0.0314 C   0  0  0  0  0  0  0  0  0  0  0  0
    2.7698    0.4006    0.0609 C   0  0  0  0  0  0  0  0  0  0  0  0
    1.6723    1.2718    0.0612 C   0  0  0  0  0  0  0  0  0  0  0  0
    3.7590   -1.7789    0.0296 N   0  0  0  0  0  0  0  0  0  0  0  0
    3.8436   -3.1491    0.1282 C   0  0  0  0  0  0  0  0  0  0  0  0
    2.9234   -3.9332    0.3111 O   0  0  0  0  0  0  0  0  0  0  0  0
    5.1500   -3.5704   -0.0062 N   0  0  0  0  0  0  0  0  0  0  0  0
    5.4791   -4.9874    0.0178 C   0  0  0  0  0  0  0  0  0  0  0  0
    5.0553   -5.7096   -1.2615 C   0  0  0  0  0  0  0  0  0  0  0  0
    5.6515   -5.0823   -2.3977 O   0  0  0  0  0  0  0  0  0  0  0  0
   -3.3075    2.2283   -0.0309 H   0  0  0  0  0  0  0  0  0  0  0  0
   -3.7891    0.7736    0.8560 H   0  0  0  0  0  0  0  0  0  0  0  0
   -3.7764    0.7740   -0.9237 H   0  0  0  0  0  0  0  0  0  0  0  0
    1.1140   -2.5865   -0.0443 H   0  0  0  0  0  0  0  0  0  0  0  0
    3.7661    0.8351    0.0902 H   0  0  0  0  0  0  0  0  0  0  0  0
    1.8155    2.3473    0.0903 H   0  0  0  0  0  0  0  0  0  0  0  0
    4.6385   -1.2893    0.0939 H   0  0  0  0  0  0  0  0  0  0  0  0
    5.7763   -2.9817   -0.5341 H   0  0  0  0  0  0  0  0  0  0  0  0
    5.0028   -5.4492    0.8890 H   0  0  0  0  0  0  0  0  0  0  0  0
    6.5656   -5.0442    0.1393 H   0  0  0  0  0  0  0  0  0  0  0  0
    3.9687   -5.7088   -1.3946 H   0  0  0  0  0  0  0  0  0  0  0  0
    5.3943   -6.7495   -1.2327 H   0  0  0  0  0  0  0  0  0  0  0  0
    5.0902   -4.3137   -2.6024 H   0  0  0  0  0  0  0  0  0  0  0  0
  1  2  1  0  0  0  0
  1 18  1  0  0  0  0
  1 19  1  0  0  0  0
  1 20  1  0  0  0  0
  2  3  2  0  0  0  0
  2  6  1  0  0  0  0
  3  4  1  0  0  0  0
  4  5  2  0  0  0  0
  4 10  1  0  0  0  0
  5  6  1  0  0  0  0
  5  7  1  0  0  0  0
  7  8  2  0  0  0  0
  7 21  1  0  0  0  0
  8  9  1  0  0  0  0
  8 11  1  0  0  0  0
  9 10  2  0  0  0  0
  9 22  1  0  0  0  0
 10 23  1  0  0  0  0
 11 12  1  0  0  0  0
 11 24  1  0  0  0  0
 12 13  2  0  0  0  0
 12 14  1  0  0  0  0
 14 15  1  0  0  0  0
 14 25  1  0  0  0  0
 15 16  1  0  0  0  0
 15 26  1  0  0  0  0
 15 27  1  0  0  0  0
 16 17  1  0  0  0  0
 16 28  1  0  0  0  0
 16 29  1  0  0  0  0
 17 30  1  0  0  0  0
M  END
