
 OpenBabel10072619523D

106110  0  0  1  0  0  0  0  0999 V2000
    0.9925   -3.1134   -1.4391 C   0  0  0  0  0  0  0  0  0  0  0  0
    2.3829   -3.0005   -2.0358 C   0  0  0  0  0  0  0  0  0  0  0  0
    3.4529   -4.2951   -1.4085 S   0  0  0  0  0  0  0  0  0  0  0  0
    3.6294   -4.0714    0.0119 O   0  0  0  0  0  0  0  0  0  0  0  0
    3.0021   -5.5798   -1.8953 O   0  0  0  0  0  0  0  0  0  0  0  0
    4.9134   -3.9652   -2.0871 N   0  0  0  0  0  0  0  0  0  0  0  0
    5.2139   -4.0617   -3.4474 C   0  0  0  0  0  0  0  0  0  0  0  0
    4.3774   -4.0682   -4.3316 O   0  0  0  0  0  0  0  0  0  0  0  0
    6.6966   -4.0355   -3.7345 C   0  0  1  0  0  0  0  0  0  0  0  0
    7.5178   -5.2049   -3.1877 C   0  0  0  0  0  0  0  0  0  0  0  0
    7.3447   -5.0590   -4.6681 C   0  0  1  0  0  0  0  0  0  0  0  0
    6.5826   -6.0951   -5.3718 C   0  0  0  0  0  0  0  0  0  0  0  0
    6.0849   -5.9970   -6.6093 C   0  0  0  0  0  0  0  0  0  0  0  0
    7.2906   -2.7074   -3.6792 N   0  0  0  0  0  0  0  0  0  0  0  0
    7.6943   -2.1430   -2.4768 C   0  0  0  0  0  0  0  0  0  0  0  0
    7.4506   -2.6533   -1.3809 O   0  0  0  0  0  0  0  0  0  0  0  0
    8.4726   -0.8263   -2.6716 C   0  0  2  0  0  0  0  0  0  0  0  0
    9.5261   -0.6572   -1.5722 C   0  0  0  0  0  0  0  0  0  0  0  0
    9.9558    0.7896   -1.7605 C   0  0  2  0  0  0  0  0  0  0  0  0
    8.6134    1.4827   -2.0419 C   0  0  0  0  0  0  0  0  0  0  0  0
    7.7640    0.4671   -2.6584 N   0  0  0  0  0  0  0  0  0  0  0  0
    6.6920    0.6731   -3.4864 C   0  0  0  0  0  0  0  0  0  0  0  0
    6.0987   -0.3368   -3.9176 O   0  0  0  0  0  0  0  0  0  0  0  0
    6.2257    2.0792   -4.0249 C   0  0  2  0  0  0  0  0  0  0  0  0
    6.4232    2.1974   -5.5996 C   0  0  0  0  0  0  0  0  0  0  0  0
    7.8966    2.0279   -6.0385 C   0  0  0  0  0  0  0  0  0  0  0  0
    5.6035    1.0951   -6.3293 C   0  0  0  0  0  0  0  0  0  0  0  0
    5.8582    3.5385   -6.1273 C   0  0  0  0  0  0  0  0  0  0  0  0
    6.4537    3.3077   -3.2477 N   0  0  0  0  0  0  0  0  0  0  0  0
    7.4234    4.2410   -3.4283 C   0  0  0  0  0  0  0  0  0  0  0  0
    8.4450    4.0982   -4.0828 O   0  0  0  0  0  0  0  0  0  0  0  0
    7.0682    5.3680   -2.7717 O   0  0  0  0  0  0  0  0  0  0  0  0
    7.9484    6.5246   -2.7886 C   0  0  0  0  0  0  0  0  0  0  0  0
    8.3148    6.9845   -4.2105 C   0  0  0  0  0  0  0  0  0  0  0  0
    7.1378    7.6474   -2.1221 C   0  0  0  0  0  0  0  0  0  0  0  0
    9.1952    6.2273   -1.9492 C   0  0  0  0  0  0  0  0  0  0  0  0
   10.7448    0.9349   -2.9509 O   0  0  0  0  0  0  0  0  0  0  0  0
   12.1060    0.7949   -2.9014 C   0  0  0  0  0  0  0  0  0  0  0  0
   12.7908    0.1875   -1.8556 C   0  0  0  0  0  0  0  0  0  0  0  0
   14.1668    0.0143   -1.9557 C   0  0  0  0  0  0  0  0  0  0  0  0
   14.8629    0.4668   -3.0297 N   0  0  0  0  0  0  0  0  0  0  0  0
   14.2155    1.0861   -4.0320 C   0  0  0  0  0  0  0  0  0  0  0  0
   12.8203    1.2559   -4.0294 C   0  0  0  0  0  0  0  0  0  0  0  0
   12.2060    1.8739   -5.1428 C   0  0  0  0  0  0  0  0  0  0  0  0
   12.9592    2.3514   -6.2179 C   0  0  0  0  0  0  0  0  0  0  0  0
   14.3421    2.2336   -6.1884 C   0  0  0  0  0  0  0  0  0  0  0  0
   14.9468    1.5781   -5.1102 C   0  0  0  0  0  0  0  0  0  0  0  0
   15.2050    2.7063   -7.1391 O   0  0  0  0  0  0  0  0  0  0  0  0
   14.6710    3.6258   -8.0864 C   0  0  0  0  0  0  0  0  0  0  0  0
   14.9465   -0.7472   -0.9513 C   0  0  0  0  0  0  0  0  0  0  0  0
   16.0584   -1.5111   -1.3530 C   0  0  0  0  0  0  0  0  0  0  0  0
   16.7757   -2.2953   -0.4454 C   0  0  0  0  0  0  0  0  0  0  0  0
   16.4072   -2.3235    0.8949 C   0  0  0  0  0  0  0  0  0  0  0  0
   15.3255   -1.5626    1.3271 C   0  0  0  0  0  0  0  0  0  0  0  0
   14.6051   -0.7807    0.4152 C   0  0  0  0  0  0  0  0  0  0  0  0
    0.3417   -2.3269   -1.8299 H   0  0  0  0  0  0  0  0  0  0  0  0
    1.0197   -3.0230   -0.3492 H   0  0  0  0  0  0  0  0  0  0  0  0
    0.5377   -4.0794   -1.6778 H   0  0  0  0  0  0  0  0  0  0  0  0
    2.8346   -2.0398   -1.7729 H   0  0  0  0  0  0  0  0  0  0  0  0
    2.3287   -3.0947   -3.1223 H   0  0  0  0  0  0  0  0  0  0  0  0
    5.6672   -3.7497   -1.4324 H   0  0  0  0  0  0  0  0  0  0  0  0
    6.9924   -5.9983   -2.6633 H   0  0  0  0  0  0  0  0  0  0  0  0
    8.4968   -5.0004   -2.7684 H   0  0  0  0  0  0  0  0  0  0  0  0
    8.2225   -4.7296   -5.2178 H   0  0  0  0  0  0  0  0  0  0  0  0
    6.4265   -7.0381   -4.8482 H   0  0  0  0  0  0  0  0  0  0  0  0
    6.1972   -5.0934   -7.1997 H   0  0  0  0  0  0  0  0  0  0  0  0
    5.5376   -6.8231   -7.0549 H   0  0  0  0  0  0  0  0  0  0  0  0
    6.9176   -2.0239   -4.3473 H   0  0  0  0  0  0  0  0  0  0  0  0
    8.9829   -0.8893   -3.6422 H   0  0  0  0  0  0  0  0  0  0  0  0
   10.3362   -1.3800   -1.6911 H   0  0  0  0  0  0  0  0  0  0  0  0
    9.0904   -0.7825   -0.5732 H   0  0  0  0  0  0  0  0  0  0  0  0
   10.4453    1.2469   -0.8955 H   0  0  0  0  0  0  0  0  0  0  0  0
    8.7739    2.3038   -2.7247 H   0  0  0  0  0  0  0  0  0  0  0  0
    8.1188    1.8191   -1.1238 H   0  0  0  0  0  0  0  0  0  0  0  0
    5.1318    1.9999   -3.9031 H   0  0  0  0  0  0  0  0  0  0  0  0
    7.9705    1.4942   -6.9953 H   0  0  0  0  0  0  0  0  0  0  0  0
    8.4817    1.4537   -5.3119 H   0  0  0  0  0  0  0  0  0  0  0  0
    8.3960    2.9896   -6.1918 H   0  0  0  0  0  0  0  0  0  0  0  0
    5.5697    1.2762   -7.4114 H   0  0  0  0  0  0  0  0  0  0  0  0
    4.5681    1.0643   -5.9701 H   0  0  0  0  0  0  0  0  0  0  0  0
    6.0454    0.1007   -6.2065 H   0  0  0  0  0  0  0  0  0  0  0  0
    5.9258    3.5945   -7.2205 H   0  0  0  0  0  0  0  0  0  0  0  0
    6.3976    4.4061   -5.7409 H   0  0  0  0  0  0  0  0  0  0  0  0
    4.8033    3.6490   -5.8475 H   0  0  0  0  0  0  0  0  0  0  0  0
    5.6857    3.6559   -2.6873 H   0  0  0  0  0  0  0  0  0  0  0  0
    7.4411    6.9580   -4.8733 H   0  0  0  0  0  0  0  0  0  0  0  0
    9.0847    6.3467   -4.6588 H   0  0  0  0  0  0  0  0  0  0  0  0
    8.7176    8.0055   -4.1988 H   0  0  0  0  0  0  0  0  0  0  0  0
    6.2137    7.8383   -2.6836 H   0  0  0  0  0  0  0  0  0  0  0  0
    7.7087    8.5818   -2.0655 H   0  0  0  0  0  0  0  0  0  0  0  0
    6.8322    7.3621   -1.1081 H   0  0  0  0  0  0  0  0  0  0  0  0
    9.7536    5.3740   -2.3479 H   0  0  0  0  0  0  0  0  0  0  0  0
    8.9158    5.9595   -0.9236 H   0  0  0  0  0  0  0  0  0  0  0  0
    9.8689    7.0888   -1.9151 H   0  0  0  0  0  0  0  0  0  0  0  0
   12.2689   -0.2065   -0.9961 H   0  0  0  0  0  0  0  0  0  0  0  0
   11.1253    1.9956   -5.1766 H   0  0  0  0  0  0  0  0  0  0  0  0
   12.4382    2.8109   -7.0519 H   0  0  0  0  0  0  0  0  0  0  0  0
   16.0293    1.4629   -5.1041 H   0  0  0  0  0  0  0  0  0  0  0  0
   15.5103    4.0896   -8.6149 H   0  0  0  0  0  0  0  0  0  0  0  0
   14.1049    4.4285   -7.6003 H   0  0  0  0  0  0  0  0  0  0  0  0
   14.0553    3.1018   -8.8246 H   0  0  0  0  0  0  0  0  0  0  0  0
   16.3668   -1.5059   -2.3982 H   0  0  0  0  0  0  0  0  0  0  0  0
   17.6214   -2.8814   -0.7931 H   0  0  0  0  0  0  0  0  0  0  0  0
   16.9674   -2.9310    1.6006 H   0  0  0  0  0  0  0  0  0  0  0  0
   15.0425   -1.5748    2.3762 H   0  0  0  0  0  0  0  0  0  0  0  0
   13.7774   -0.1864    0.7953 H   0  0  0  0  0  0  0  0  0  0  0  0
  1  2  1  0  0  0  0
  1 56  1  0  0  0  0
  1 57  1  0  0  0  0
  1 58  1  0  0  0  0
  2  3  1  0  0  0  0
  2 59  1  0  0  0  0
  2 60  1  0  0  0  0
  3  4  2  0  0  0  0
  3  5  2  0  0  0  0
  3  6  1  0  0  0  0
  6  7  1  0  0  0  0
  6 61  1  0  0  0  0
  7  8  2  0  0  0  0
  9 10  1  0  0  0  0
  9 11  1  0  0  0  0
  9 14  1  0  0  0  0
  9  7  1  1  0  0  0
 10 11  1  0  0  0  0
 10 62  1  0  0  0  0
 10 63  1  0  0  0  0
 11 12  1  0  0  0  0
 11 64  1  6  0  0  0
 12 13  2  0  0  0  0
 12 65  1  0  0  0  0
 13 66  1  0  0  0  0
 13 67  1  0  0  0  0
 14 15  1  0  0  0  0
 14 68  1  0  0  0  0
 15 16  2  0  0  0  0
 15 17  1  0  0  0  0
 17 18  1  0  0  0  0
 17 21  1  0  0  0  0
 17 69  1  6  0  0  0
 18 19  1  0  0  0  0
 18 70  1  0  0  0  0
 18 71  1  0  0  0  0
 19 20  1  0  0  0  0
 19 37  1  0  0  0  0
 19 72  1  1  0  0  0
 20 21  1  0  0  0  0
 20 73  1  0  0  0  0
 20 74  1  0  0  0  0
 21 22  1  0  0  0  0
 22 23  2  0  0  0  0
 24 29  1  0  0  0  0
 24 25  1  0  0  0  0
 24 22  1  0  0  0  0
 24 75  1  1  0  0  0
 25 26  1  0  0  0  0
 25 27  1  0  0  0  0
 25 28  1  0  0  0  0
 26 76  1  0  0  0  0
 26 77  1  0  0  0  0
 26 78  1  0  0  0  0
 27 79  1  0  0  0  0
 27 80  1  0  0  0  0
 27 81  1  0  0  0  0
 28 82  1  0  0  0  0
 28 83  1  0  0  0  0
 28 84  1  0  0  0  0
 29 30  1  0  0  0  0
 29 85  1  0  0  0  0
 30 31  2  0  0  0  0
 30 32  1  0  0  0  0
 32 33  1  0  0  0  0
 33 34  1  0  0  0  0
 33 35  1  0  0  0  0
 33 36  1  0  0  0  0
 34 86  1  0  0  0  0
 34 87  1  0  0  0  0
 34 88  1  0  0  0  0
 35 89  1  0  0  0  0
 35 90  1  0  0  0  0
 35 91  1  0  0  0  0
 36 92  1  0  0  0  0
 36 93  1  0  0  0  0
 36 94  1  0  0  0  0
 37 38  1  0  0  0  0
 38 39  2  0  0  0  0
 38 43  1  0  0  0  0
 39 40  1  0  0  0  0
 39 95  1  0  0  0  0
 40 41  2  0  0  0  0
 40 50  1  0  0  0  0
 41 42  1  0  0  0  0
 42 43  2  0  0  0  0
 42 47  1  0  0  0  0
 43 44  1  0  0  0  0
 44 45  2  0  0  0  0
 44 96  1  0  0  0  0
 45 46  1  0  0  0  0
 45 97  1  0  0  0  0
 46 47  2  0  0  0  0
 46 48  1  0  0  0  0
 47 98  1  0  0  0  0
 48 49  1  0  0  0  0
 49 99  1  0  0  0  0
 49100  1  0  0  0  0
 49101  1  0  0  0  0
 50 51  2  0  0  0  0
 50 55  1  0  0  0  0
 51 52  1  0  0  0  0
 51102  1  0  0  0  0
 52 53  2  0  0  0  0
 52103  1  0  0  0  0
 53 54  1  0  0  0  0
 53104  1  0  0  0  0
 54 55  2  0  0  0  0
 54105  1  0  0  0  0
 55106  1  0  0  0  0
M  END
