
 OpenBabel10072620113D

 14 14  0  0  1  0  0  0  0  0999 V2000
    0.9829    0.0632    0.0126 C   0  0  0  0  0  0  0  0  0  0  0  0
    2.4601    0.2095    0.0890 C   0  0  3  0  0  0  0  0  0  0  0  0
    3.2539    0.7332   -1.0843 C   0  0  3  0  0  0  0  0  0  0  0  0
    3.1892   -0.6705   -0.7702 O   0  0  0  0  0  0  0  0  0  0  0  0
    4.4566    1.5264   -0.8174 C   0  0  0  0  0  0  0  0  0  0  0  0
    4.4887    2.8285   -0.5055 C   0  0  0  0  0  0  0  0  0  0  0  0
    0.4965    0.9765    0.3684 H   0  0  0  0  0  0  0  0  0  0  0  0
    0.6530   -0.7675    0.6441 H   0  0  0  0  0  0  0  0  0  0  0  0
    0.6403   -0.1292   -1.0095 H   0  0  0  0  0  0  0  0  0  0  0  0
    2.8253    0.3523    1.0970 H   0  0  0  0  0  0  0  0  0  0  0  0
    2.7096    1.0456   -1.9702 H   0  0  0  0  0  0  0  0  0  0  0  0
    5.4007    0.9891   -0.8870 H   0  0  0  0  0  0  0  0  0  0  0  0
    3.5784    3.4135   -0.4232 H   0  0  0  0  0  0  0  0  0  0  0  0
    5.4326    3.3331   -0.3251 H   0  0  0  0  0  0  0  0  0  0  0  0
  1  2  1  0  0  0  0
  1  7  1  0  0  0  0
  1  8  1  0  0  0  0
  1  9  1  0  0  0  0
  2  3  1  0  0  0  0
  2  4  1  0  0  0  0
  2 10  1  0  0  0  0
  3  4  1  0  0  0  0
  3  5  1  0  0  0  0
  3 11  1  0  0  0  0
  5  6  2  0  0  0  0
  5 12  1  0  0  0  0
  6 13  1  0  0  0  0
  6 14  1  0  0  0  0
M  END
