
 OpenBabel10072620153D

 26 26  0  0  0  0  0  0  0  0999 V2000
    1.2334   -0.6218    0.7713 C   0  0  0  0  0  0  0  0  0  0  0  0
    2.5724   -0.2888    0.4311 O   0  0  0  0  0  0  0  0  0  0  0  0
    3.0340    0.9327    0.8464 C   0  0  0  0  0  0  0  0  0  0  0  0
    2.3653    1.7739    1.7395 C   0  0  0  0  0  0  0  0  0  0  0  0
    2.9230    3.0000    2.1085 C   0  0  0  0  0  0  0  0  0  0  0  0
    4.1689    3.3843    1.6158 C   0  0  0  0  0  0  0  0  0  0  0  0
    4.8752    2.5476    0.7467 C   0  0  0  0  0  0  0  0  0  0  0  0
    4.2803    1.3396    0.3358 C   0  0  0  0  0  0  0  0  0  0  0  0
    4.9721    0.5446   -0.5507 O   0  0  0  0  0  0  0  0  0  0  0  0
    4.3495    0.5465   -1.8375 C   0  0  0  0  0  0  0  0  0  0  0  0
    6.1992    2.9932    0.2900 C   0  0  0  0  0  0  0  0  0  0  0  0
    7.2657    2.1891    0.3755 C   0  0  0  0  0  0  0  0  0  0  0  0
    8.5563    2.6526   -0.0678 N   0  3  0  0  0  0  0  0  0  0  0  0
    8.6416    3.7682   -0.5979 O   0  0  0  0  0  0  0  0  0  0  0  0
    9.5023    1.8796    0.1219 O   0  5  0  0  0  0  0  0  0  0  0  0
    0.9689   -1.5353    0.2315 H   0  0  0  0  0  0  0  0  0  0  0  0
    0.5364    0.1599    0.4521 H   0  0  0  0  0  0  0  0  0  0  0  0
    1.1376   -0.8253    1.8434 H   0  0  0  0  0  0  0  0  0  0  0  0
    1.4082    1.5046    2.1736 H   0  0  0  0  0  0  0  0  0  0  0  0
    2.3891    3.6565    2.7912 H   0  0  0  0  0  0  0  0  0  0  0  0
    4.5917    4.3341    1.9345 H   0  0  0  0  0  0  0  0  0  0  0  0
    5.1397    0.5720   -2.5941 H   0  0  0  0  0  0  0  0  0  0  0  0
    3.6993    1.4128   -2.0095 H   0  0  0  0  0  0  0  0  0  0  0  0
    3.7835   -0.3791   -1.9736 H   0  0  0  0  0  0  0  0  0  0  0  0
    6.2573    4.0098   -0.0914 H   0  0  0  0  0  0  0  0  0  0  0  0
    7.3097    1.1813    0.7587 H   0  0  0  0  0  0  0  0  0  0  0  0
  1  2  1  0  0  0  0
  1 16  1  0  0  0  0
  1 17  1  0  0  0  0
  1 18  1  0  0  0  0
  2  3  1  0  0  0  0
  3  4  2  0  0  0  0
  3  8  1  0  0  0  0
  4  5  1  0  0  0  0
  4 19  1  0  0  0  0
  5  6  2  0  0  0  0
  5 20  1  0  0  0  0
  6  7  1  0  0  0  0
  6 21  1  0  0  0  0
  7  8  2  0  0  0  0
  7 11  1  0  0  0  0
  8  9  1  0  0  0  0
  9 10  1  0  0  0  0
 10 22  1  0  0  0  0
 10 23  1  0  0  0  0
 10 24  1  0  0  0  0
 11 12  2  3  0  0  0
 11 25  1  0  0  0  0
 12 13  1  0  0  0  0
 12 26  1  0  0  0  0
 13 14  2  0  0  0  0
 13 15  1  0  0  0  0
M  CHG  2  13   1  15  -1
M  END
