
 OpenBabel10072616443D

 45 46  0  0  0  0  0  0  0  0999 V2000
   -0.3481    1.3218   -0.0064 C   0  0  0  0  0  0  0  0  0  0  0  0
   -1.2869    0.3073    0.1936 C   0  0  0  0  0  0  0  0  0  0  0  0
   -0.8788   -1.0256    0.1221 C   0  0  0  0  0  0  0  0  0  0  0  0
    0.4568   -1.3475   -0.1287 C   0  0  0  0  0  0  0  0  0  0  0  0
    1.3877   -0.3274   -0.3334 C   0  0  0  0  0  0  0  0  0  0  0  0
    0.9895    1.0119   -0.2870 C   0  0  0  0  0  0  0  0  0  0  0  0
    1.8976    2.0847   -0.4116 N   0  0  0  0  0  0  0  0  0  0  0  0
    3.0969    2.1238   -1.0797 C   0  0  0  0  0  0  0  0  0  0  0  0
    3.5342    1.2573   -2.4410 S   0  0  0  0  0  0  0  0  0  0  0  0
    4.0470    2.9897   -0.5600 N   0  0  0  0  0  0  0  0  0  0  0  0
    4.1230    3.3790    0.7825 C   0  0  0  0  0  0  0  0  0  0  0  0
    3.4209    4.4516    1.2304 C   0  0  0  0  0  0  0  0  0  0  0  0
    3.4089    4.9832    2.6123 C   0  0  0  0  0  0  0  0  0  0  0  0
    2.1622    5.3217    3.0224 F   0  0  0  0  0  0  0  0  0  0  0  0
    3.8490    4.0793    3.5213 F   0  0  0  0  0  0  0  0  0  0  0  0
    4.1948    6.0779    2.7292 F   0  0  0  0  0  0  0  0  0  0  0  0
    2.5784    5.3261    0.3854 C   0  0  0  0  0  0  0  0  0  0  0  0
    2.2564    6.5148    0.9460 F   0  0  0  0  0  0  0  0  0  0  0  0
    3.1724    5.6220   -0.7986 F   0  0  0  0  0  0  0  0  0  0  0  0
    1.4040    4.7076    0.0865 F   0  0  0  0  0  0  0  0  0  0  0  0
    5.2107    2.6384    1.5872 C   0  0  0  0  0  0  0  0  0  0  0  0
    4.7108    1.3630    2.2964 C   0  0  0  0  0  0  0  0  0  0  0  0
    4.2573    0.4434    1.4071 F   0  0  0  0  0  0  0  0  0  0  0  0
    5.6923    0.7677    3.0151 F   0  0  0  0  0  0  0  0  0  0  0  0
    3.6891    1.6219    3.1475 F   0  0  0  0  0  0  0  0  0  0  0  0
    6.2212    2.3060    0.7196 F   0  0  0  0  0  0  0  0  0  0  0  0
    5.7977    3.4953    2.4706 F   0  0  0  0  0  0  0  0  0  0  0  0
   -2.0443   -2.3288    0.4446 S   0  0  0  0  0  0  0  0  0  0  0  0
   -1.2928   -3.4355    1.0002 O   0  0  0  0  0  0  0  0  0  0  0  0
   -3.1569   -1.7599    1.1716 O   0  0  0  0  0  0  0  0  0  0  0  0
   -2.4659   -2.7787   -1.1157 N   0  0  0  0  0  0  0  0  0  0  0  0
   -3.8250   -2.6463   -1.4689 C   0  0  0  0  0  0  0  0  0  0  0  0
   -4.3965   -3.6887   -2.0229 N   0  0  0  0  0  0  0  0  0  0  0  0
   -5.7010   -3.3730   -2.3486 C   0  0  0  0  0  0  0  0  0  0  0  0
   -6.0799   -2.0725   -2.0940 C   0  0  0  0  0  0  0  0  0  0  0  0
   -4.7526   -1.2098   -1.4336 S   0  0  0  0  0  0  0  0  0  0  0  0
   -0.6795    2.3563    0.0468 H   0  0  0  0  0  0  0  0  0  0  0  0
   -2.3224    0.5655    0.4039 H   0  0  0  0  0  0  0  0  0  0  0  0
    0.7867   -2.3838   -0.1549 H   0  0  0  0  0  0  0  0  0  0  0  0
    2.4250   -0.6077   -0.4915 H   0  0  0  0  0  0  0  0  0  0  0  0
    1.4991    2.9980   -0.2188 H   0  0  0  0  0  0  0  0  0  0  0  0
    4.9474    2.7277   -0.9764 H   0  0  0  0  0  0  0  0  0  0  0  0
   -2.1581   -3.7310   -1.3122 H   0  0  0  0  0  0  0  0  0  0  0  0
   -6.3381   -4.1352   -2.7811 H   0  0  0  0  0  0  0  0  0  0  0  0
   -7.0361   -1.6010   -2.2674 H   0  0  0  0  0  0  0  0  0  0  0  0
  1  2  2  0  0  0  0
  1  6  1  0  0  0  0
  1 37  1  0  0  0  0
  2  3  1  0  0  0  0
  2 38  1  0  0  0  0
  3  4  2  0  0  0  0
  3 28  1  0  0  0  0
  4  5  1  0  0  0  0
  4 39  1  0  0  0  0
  5  6  2  0  0  0  0
  5 40  1  0  0  0  0
  6  7  1  0  0  0  0
  7  8  1  0  0  0  0
  7 41  1  0  0  0  0
  8  9  2  0  0  0  0
  8 10  1  0  0  0  0
 10 11  1  0  0  0  0
 10 42  1  0  0  0  0
 11 12  2  0  0  0  0
 11 21  1  0  0  0  0
 12 13  1  0  0  0  0
 12 17  1  0  0  0  0
 13 14  1  0  0  0  0
 13 15  1  0  0  0  0
 13 16  1  0  0  0  0
 17 18  1  0  0  0  0
 17 19  1  0  0  0  0
 17 20  1  0  0  0  0
 21 22  1  0  0  0  0
 21 26  1  0  0  0  0
 21 27  1  0  0  0  0
 22 23  1  0  0  0  0
 22 24  1  0  0  0  0
 22 25  1  0  0  0  0
 28 29  2  0  0  0  0
 28 30  2  0  0  0  0
 28 31  1  0  0  0  0
 31 32  1  0  0  0  0
 31 43  1  0  0  0  0
 32 33  2  0  0  0  0
 32 36  1  0  0  0  0
 33 34  1  0  0  0  0
 34 35  2  0  0  0  0
 34 44  1  0  0  0  0
 35 36  1  0  0  0  0
 35 45  1  0  0  0  0
M  END
