
 OpenBabel10072616333D

 56 60  0  0  0  0  0  0  0  0999 V2000
    9.1784   -4.8903   -7.0071 C   0  0  0  0  0  0  0  0  0  0  0  0
    8.4266   -4.1492   -5.9368 C   0  0  0  0  0  0  0  0  0  0  0  0
    8.4928   -4.5637   -4.5948 C   0  0  0  0  0  0  0  0  0  0  0  0
    7.7932   -3.8714   -3.6021 C   0  0  0  0  0  0  0  0  0  0  0  0
    7.0320   -2.7548   -3.9724 C   0  0  0  0  0  0  0  0  0  0  0  0
    6.9605   -2.3179   -5.2958 C   0  0  0  0  0  0  0  0  0  0  0  0
    7.6729   -3.0137   -6.2739 C   0  0  0  0  0  0  0  0  0  0  0  0
    6.3519   -2.1110   -2.9324 N   0  0  0  0  0  0  0  0  0  0  0  0
    6.3602   -2.5096   -1.6104 C   0  0  0  0  0  0  0  0  0  0  0  0
    5.6182   -1.6625   -0.9270 N   0  0  0  0  0  0  0  0  0  0  0  0
    5.1581   -0.7375   -1.8352 N   0  0  0  0  0  0  0  0  0  0  0  0
    5.5923   -1.0067   -3.0593 N   0  0  0  0  0  0  0  0  0  0  0  0
    7.1113   -3.6618   -1.2203 C   0  0  0  0  0  0  0  0  0  0  0  0
    7.8238   -4.2905   -2.1876 C   0  0  0  0  0  0  0  0  0  0  0  0
    7.1487   -4.1578    0.2221 C   0  0  0  0  0  0  0  0  0  0  0  0
    6.1726   -5.2365    0.4157 N   0  0  0  0  0  0  0  0  0  0  0  0
    4.7722   -4.8385    0.6148 C   0  0  0  0  0  0  0  0  0  0  0  0
    4.1256   -5.3660    1.8738 C   0  0  0  0  0  0  0  0  0  0  0  0
    4.8449   -5.6461    3.0308 C   0  0  0  0  0  0  0  0  0  0  0  0
    4.2907   -6.0944    4.1823 N   0  0  0  0  0  0  0  0  0  0  0  0
    2.9509   -6.2503    4.1984 C   0  0  0  0  0  0  0  0  0  0  0  0
    2.1386   -5.9811    3.1116 C   0  0  0  0  0  0  0  0  0  0  0  0
    2.7358   -5.5298    1.9370 C   0  0  0  0  0  0  0  0  0  0  0  0
    6.5984   -6.5130    0.0817 C   0  0  0  0  0  0  0  0  0  0  0  0
    7.7745   -6.7684   -0.1654 O   0  0  0  0  0  0  0  0  0  0  0  0
    5.6240   -7.4655   -0.0232 N   0  0  0  0  0  0  0  0  0  0  0  0
    5.9784   -8.8126   -0.4106 C   0  0  0  0  0  0  0  0  0  0  0  0
    4.8594   -9.4601   -1.1796 C   0  0  0  0  0  0  0  0  0  0  0  0
    4.6409   -9.1114   -2.5215 C   0  0  0  0  0  0  0  0  0  0  0  0
    3.6214   -9.7192   -3.2532 C   0  0  0  0  0  0  0  0  0  0  0  0
    2.8047  -10.6726   -2.6491 C   0  0  0  0  0  0  0  0  0  0  0  0
    3.0050  -11.0158   -1.3127 C   0  0  0  0  0  0  0  0  0  0  0  0
    4.0255  -10.4105   -0.5779 C   0  0  0  0  0  0  0  0  0  0  0  0
    9.4998   -5.8780   -6.6575 H   0  0  0  0  0  0  0  0  0  0  0  0
   10.0650   -4.3222   -7.3088 H   0  0  0  0  0  0  0  0  0  0  0  0
    8.5351   -5.0456   -7.8809 H   0  0  0  0  0  0  0  0  0  0  0  0
    9.0878   -5.4361   -4.3317 H   0  0  0  0  0  0  0  0  0  0  0  0
    6.3679   -1.4515   -5.5795 H   0  0  0  0  0  0  0  0  0  0  0  0
    7.6306   -2.6751   -7.3081 H   0  0  0  0  0  0  0  0  0  0  0  0
    8.4369   -5.1579   -1.9519 H   0  0  0  0  0  0  0  0  0  0  0  0
    6.9316   -3.3498    0.9308 H   0  0  0  0  0  0  0  0  0  0  0  0
    8.1542   -4.5150    0.4738 H   0  0  0  0  0  0  0  0  0  0  0  0
    4.2087   -5.1707   -0.2656 H   0  0  0  0  0  0  0  0  0  0  0  0
    4.7096   -3.7453    0.6594 H   0  0  0  0  0  0  0  0  0  0  0  0
    5.9240   -5.5195    3.0755 H   0  0  0  0  0  0  0  0  0  0  0  0
    2.5359   -6.6034    5.1384 H   0  0  0  0  0  0  0  0  0  0  0  0
    1.0649   -6.1117    3.1788 H   0  0  0  0  0  0  0  0  0  0  0  0
    2.1108   -5.3004    1.0763 H   0  0  0  0  0  0  0  0  0  0  0  0
    4.8099   -7.3777    0.5644 H   0  0  0  0  0  0  0  0  0  0  0  0
    6.2120   -9.3707    0.5036 H   0  0  0  0  0  0  0  0  0  0  0  0
    6.8878   -8.8160   -1.0245 H   0  0  0  0  0  0  0  0  0  0  0  0
    5.2740   -8.3661   -3.0002 H   0  0  0  0  0  0  0  0  0  0  0  0
    3.4665   -9.4496   -4.2941 H   0  0  0  0  0  0  0  0  0  0  0  0
    2.0157  -11.1524   -3.2218 H   0  0  0  0  0  0  0  0  0  0  0  0
    2.3667  -11.7590   -0.8430 H   0  0  0  0  0  0  0  0  0  0  0  0
    4.1719  -10.6917    0.4626 H   0  0  0  0  0  0  0  0  0  0  0  0
  1  2  1  0  0  0  0
  1 34  1  0  0  0  0
  1 35  1  0  0  0  0
  1 36  1  0  0  0  0
  2  3  2  0  0  0  0
  2  7  1  0  0  0  0
  3  4  1  0  0  0  0
  3 37  1  0  0  0  0
  4  5  2  0  0  0  0
  4 14  1  0  0  0  0
  5  6  1  0  0  0  0
  5  8  1  0  0  0  0
  6  7  2  0  0  0  0
  6 38  1  0  0  0  0
  7 39  1  0  0  0  0
  8  9  1  0  0  0  0
  8 12  1  0  0  0  0
  9 10  2  0  0  0  0
  9 13  1  0  0  0  0
 10 11  1  0  0  0  0
 11 12  2  0  0  0  0
 13 14  2  0  0  0  0
 13 15  1  0  0  0  0
 14 40  1  0  0  0  0
 15 16  1  0  0  0  0
 15 41  1  0  0  0  0
 15 42  1  0  0  0  0
 16 17  1  0  0  0  0
 16 24  1  0  0  0  0
 17 18  1  0  0  0  0
 17 43  1  0  0  0  0
 17 44  1  0  0  0  0
 18 19  2  0  0  0  0
 18 23  1  0  0  0  0
 19 20  1  0  0  0  0
 19 45  1  0  0  0  0
 20 21  2  0  0  0  0
 21 22  1  0  0  0  0
 21 46  1  0  0  0  0
 22 23  2  0  0  0  0
 22 47  1  0  0  0  0
 23 48  1  0  0  0  0
 24 25  2  0  0  0  0
 24 26  1  0  0  0  0
 26 27  1  0  0  0  0
 26 49  1  0  0  0  0
 27 28  1  0  0  0  0
 27 50  1  0  0  0  0
 27 51  1  0  0  0  0
 28 29  2  0  0  0  0
 28 33  1  0  0  0  0
 29 30  1  0  0  0  0
 29 52  1  0  0  0  0
 30 31  2  0  0  0  0
 30 53  1  0  0  0  0
 31 32  1  0  0  0  0
 31 54  1  0  0  0  0
 32 33  2  0  0  0  0
 32 55  1  0  0  0  0
 33 56  1  0  0  0  0
M  END
