
 OpenBabel10072619483D

 42 44  0  0  0  0  0  0  0  0999 V2000
    1.0172   -0.7722    1.3922 C   0  0  0  0  0  0  0  0  0  0  0  0
    0.8010   -0.0561    0.2156 C   0  0  0  0  0  0  0  0  0  0  0  0
   -0.4721    0.4309   -0.0847 C   0  0  0  0  0  0  0  0  0  0  0  0
   -1.5400    0.2074    0.7941 C   0  0  0  0  0  0  0  0  0  0  0  0
   -1.3111   -0.5161    1.9746 C   0  0  0  0  0  0  0  0  0  0  0  0
   -0.0388   -1.0046    2.2710 C   0  0  0  0  0  0  0  0  0  0  0  0
   -2.9263    0.6864    0.4596 C   0  0  0  0  0  0  0  0  0  0  0  0
   -3.7671   -0.4356    0.1154 N   0  0  0  0  0  0  0  0  0  0  0  0
   -5.1088   -0.2346   -0.1231 C   0  0  0  0  0  0  0  0  0  0  0  0
   -5.6332    0.8669   -0.0352 O   0  0  0  0  0  0  0  0  0  0  0  0
   -5.7229   -1.4277   -0.4271 N   0  0  0  0  0  0  0  0  0  0  0  0
   -7.0708   -1.6490   -0.7618 C   0  0  0  0  0  0  0  0  0  0  0  0
   -8.0092   -0.6286   -0.9348 C   0  0  0  0  0  0  0  0  0  0  0  0
   -9.3292   -0.9318   -1.2868 C   0  0  0  0  0  0  0  0  0  0  0  0
   -9.7096   -2.2606   -1.4775 C   0  0  0  0  0  0  0  0  0  0  0  0
   -8.7894   -3.2872   -1.2830 C   0  0  0  0  0  0  0  0  0  0  0  0
   -7.4718   -2.9804   -0.9368 C   0  0  0  0  0  0  0  0  0  0  0  0
  -10.9989   -2.6220   -1.7925 O   0  0  0  0  0  0  0  0  0  0  0  0
  -11.5577   -2.0011   -2.8843 C   0  0  0  0  0  0  0  0  0  0  0  0
  -10.9664   -2.0205   -4.1495 C   0  0  0  0  0  0  0  0  0  0  0  0
  -11.5950   -1.4027   -5.2253 C   0  0  0  0  0  0  0  0  0  0  0  0
  -12.8271   -0.7856   -5.0514 C   0  0  0  0  0  0  0  0  0  0  0  0
  -13.4343   -0.7875   -3.8027 C   0  0  0  0  0  0  0  0  0  0  0  0
  -12.8050   -1.3989   -2.7240 C   0  0  0  0  0  0  0  0  0  0  0  0
  -13.3987   -1.3962   -1.5218 F   0  0  0  0  0  0  0  0  0  0  0  0
  -14.6273   -0.1998   -3.6371 F   0  0  0  0  0  0  0  0  0  0  0  0
  -13.4337   -0.1958   -6.0909 F   0  0  0  0  0  0  0  0  0  0  0  0
  -11.0139   -1.4102   -6.4329 F   0  0  0  0  0  0  0  0  0  0  0  0
   -9.7995   -2.6506   -4.3486 F   0  0  0  0  0  0  0  0  0  0  0  0
    2.0092   -1.1506    1.6243 H   0  0  0  0  0  0  0  0  0  0  0  0
    1.6251    0.1213   -0.4706 H   0  0  0  0  0  0  0  0  0  0  0  0
   -0.6245    0.9839   -1.0092 H   0  0  0  0  0  0  0  0  0  0  0  0
   -2.1311   -0.7068    2.6647 H   0  0  0  0  0  0  0  0  0  0  0  0
    0.1277   -1.5680    3.1855 H   0  0  0  0  0  0  0  0  0  0  0  0
   -2.9179    1.3807   -0.3886 H   0  0  0  0  0  0  0  0  0  0  0  0
   -3.3632    1.2174    1.3131 H   0  0  0  0  0  0  0  0  0  0  0  0
   -3.3249   -1.1652   -0.4224 H   0  0  0  0  0  0  0  0  0  0  0  0
   -5.1486   -2.2462   -0.2946 H   0  0  0  0  0  0  0  0  0  0  0  0
   -7.7442    0.4160   -0.8007 H   0  0  0  0  0  0  0  0  0  0  0  0
  -10.0461   -0.1226   -1.3909 H   0  0  0  0  0  0  0  0  0  0  0  0
   -9.0911   -4.3228   -1.4134 H   0  0  0  0  0  0  0  0  0  0  0  0
   -6.7674   -3.7971   -0.8028 H   0  0  0  0  0  0  0  0  0  0  0  0
  1  2  2  0  0  0  0
  1  6  1  0  0  0  0
  1 30  1  0  0  0  0
  2  3  1  0  0  0  0
  2 31  1  0  0  0  0
  3  4  2  0  0  0  0
  3 32  1  0  0  0  0
  4  5  1  0  0  0  0
  4  7  1  0  0  0  0
  5  6  2  0  0  0  0
  5 33  1  0  0  0  0
  6 34  1  0  0  0  0
  7  8  1  0  0  0  0
  7 35  1  0  0  0  0
  7 36  1  0  0  0  0
  8  9  1  0  0  0  0
  8 37  1  0  0  0  0
  9 10  2  0  0  0  0
  9 11  1  0  0  0  0
 11 12  1  0  0  0  0
 11 38  1  0  0  0  0
 12 13  2  0  0  0  0
 12 17  1  0  0  0  0
 13 14  1  0  0  0  0
 13 39  1  0  0  0  0
 14 15  2  0  0  0  0
 14 40  1  0  0  0  0
 15 16  1  0  0  0  0
 15 18  1  0  0  0  0
 16 17  2  0  0  0  0
 16 41  1  0  0  0  0
 17 42  1  0  0  0  0
 18 19  1  0  0  0  0
 19 20  2  0  0  0  0
 19 24  1  0  0  0  0
 20 21  1  0  0  0  0
 20 29  1  0  0  0  0
 21 22  2  0  0  0  0
 21 28  1  0  0  0  0
 22 23  1  0  0  0  0
 22 27  1  0  0  0  0
 23 24  2  0  0  0  0
 23 26  1  0  0  0  0
 24 25  1  0  0  0  0
M  END
