
 OpenBabel10072620153D

 72 73  0  0  0  0  0  0  0  0999 V2000
   -0.2714    2.4837    1.3977 C   0  0  0  0  0  0  0  0  0  0  0  0
    1.1966    2.8716    1.4151 C   0  0  0  0  0  0  0  0  0  0  0  0
    1.9450    2.1870    2.5552 C   0  0  0  0  0  0  0  0  0  0  0  0
    3.4184    2.5891    2.5526 C   0  0  0  0  0  0  0  0  0  0  0  0
    4.1696    1.9106    3.6953 C   0  0  0  0  0  0  0  0  0  0  0  0
    5.6443    2.3000    3.6887 C   0  0  0  0  0  0  0  0  0  0  0  0
    6.3984    1.6371    4.8409 C   0  0  0  0  0  0  0  0  0  0  0  0
    7.8667    2.0517    4.8173 C   0  0  0  0  0  0  0  0  0  0  0  0
    8.6413    1.5045    6.0115 C   0  0  0  0  0  0  0  0  0  0  0  0
   10.1010    1.9473    5.9458 C   0  0  0  0  0  0  0  0  0  0  0  0
   10.7392    1.5822    7.1674 O   0  0  0  0  0  0  0  0  0  0  0  0
   12.0853    1.8111    7.2440 C   0  0  0  0  0  0  0  0  0  0  0  0
   12.8786    2.4069    6.2625 C   0  0  0  0  0  0  0  0  0  0  0  0
   14.2675    2.5068    6.4329 C   0  0  0  0  0  0  0  0  0  0  0  0
   14.8742    2.0010    7.5794 C   0  0  0  0  0  0  0  0  0  0  0  0
   14.0660    1.4728    8.5940 C   0  0  0  0  0  0  0  0  0  0  0  0
   12.6830    1.3759    8.4240 C   0  0  0  0  0  0  0  0  0  0  0  0
   16.2672    1.9280    7.7782 N   0  0  0  0  0  0  0  0  0  0  0  0
   17.2727    2.1897    6.8847 C   0  0  0  0  0  0  0  0  0  0  0  0
   17.1219    2.5996    5.7358 O   0  0  0  0  0  0  0  0  0  0  0  0
   18.5387    1.8438    7.2889 N   0  0  0  0  0  0  0  0  0  0  0  0
   19.0272    1.4313    8.5428 C   0  0  0  0  0  0  0  0  0  0  0  0
   18.5659    1.9728    9.7476 C   0  0  0  0  0  0  0  0  0  0  0  0
   19.0902    1.5240   10.9616 C   0  0  0  0  0  0  0  0  0  0  0  0
   20.0890    0.5488   10.9764 C   0  0  0  0  0  0  0  0  0  0  0  0
   20.5737    0.0204    9.7781 C   0  0  0  0  0  0  0  0  0  0  0  0
   20.0353    0.4519    8.5658 C   0  0  0  0  0  0  0  0  0  0  0  0
   20.4572   -0.0599    7.3623 O   0  0  0  0  0  0  0  0  0  0  0  0
   20.3656   -1.4917    7.3032 C   0  0  0  0  0  0  0  0  0  0  0  0
   20.0518   -1.8843    5.8613 C   0  0  0  0  0  0  0  0  0  0  0  0
   20.0002   -3.4001    5.6825 C   0  0  0  0  0  0  0  0  0  0  0  0
   19.6652   -3.7802    4.2495 C   0  0  0  0  0  0  0  0  0  0  0  0
   -0.7830    2.9876    0.5722 H   0  0  0  0  0  0  0  0  0  0  0  0
   -0.7648    2.7717    2.3313 H   0  0  0  0  0  0  0  0  0  0  0  0
   -0.3896    1.4039    1.2640 H   0  0  0  0  0  0  0  0  0  0  0  0
    1.2813    3.9596    1.5179 H   0  0  0  0  0  0  0  0  0  0  0  0
    1.6529    2.5989    0.4565 H   0  0  0  0  0  0  0  0  0  0  0  0
    1.8605    1.0978    2.4553 H   0  0  0  0  0  0  0  0  0  0  0  0
    1.4898    2.4598    3.5153 H   0  0  0  0  0  0  0  0  0  0  0  0
    3.5044    3.6787    2.6484 H   0  0  0  0  0  0  0  0  0  0  0  0
    3.8751    2.3126    1.5942 H   0  0  0  0  0  0  0  0  0  0  0  0
    4.0759    0.8221    3.6023 H   0  0  0  0  0  0  0  0  0  0  0  0
    3.7169    2.1960    4.6526 H   0  0  0  0  0  0  0  0  0  0  0  0
    5.7352    3.3903    3.7708 H   0  0  0  0  0  0  0  0  0  0  0  0
    6.0994    2.0106    2.7335 H   0  0  0  0  0  0  0  0  0  0  0  0
    6.3174    0.5463    4.7620 H   0  0  0  0  0  0  0  0  0  0  0  0
    5.9417    1.9286    5.7943 H   0  0  0  0  0  0  0  0  0  0  0  0
    7.9334    3.1467    4.8191 H   0  0  0  0  0  0  0  0  0  0  0  0
    8.3293    1.7026    3.8862 H   0  0  0  0  0  0  0  0  0  0  0  0
    8.5901    0.4084    6.0350 H   0  0  0  0  0  0  0  0  0  0  0  0
    8.1923    1.8499    6.9507 H   0  0  0  0  0  0  0  0  0  0  0  0
   10.1495    3.0359    5.8219 H   0  0  0  0  0  0  0  0  0  0  0  0
   10.5836    1.4513    5.0941 H   0  0  0  0  0  0  0  0  0  0  0  0
   12.4543    2.7887    5.3404 H   0  0  0  0  0  0  0  0  0  0  0  0
   14.8497    2.9627    5.6371 H   0  0  0  0  0  0  0  0  0  0  0  0
   14.5013    1.1055    9.5190 H   0  0  0  0  0  0  0  0  0  0  0  0
   12.0712    0.9359    9.2078 H   0  0  0  0  0  0  0  0  0  0  0  0
   16.5522    1.4019    8.5867 H   0  0  0  0  0  0  0  0  0  0  0  0
   19.1649    1.6981    6.5021 H   0  0  0  0  0  0  0  0  0  0  0  0
   17.8359    2.7796    9.7587 H   0  0  0  0  0  0  0  0  0  0  0  0
   18.7418    1.9555   11.8980 H   0  0  0  0  0  0  0  0  0  0  0  0
   20.5055    0.2147   11.9231 H   0  0  0  0  0  0  0  0  0  0  0  0
   21.3699   -0.7184    9.7962 H   0  0  0  0  0  0  0  0  0  0  0  0
   19.5696   -1.8738    7.9553 H   0  0  0  0  0  0  0  0  0  0  0  0
   21.3230   -1.9261    7.6135 H   0  0  0  0  0  0  0  0  0  0  0  0
   20.8022   -1.4508    5.1887 H   0  0  0  0  0  0  0  0  0  0  0  0
   19.0940   -1.4344    5.5708 H   0  0  0  0  0  0  0  0  0  0  0  0
   19.2472   -3.8350    6.3502 H   0  0  0  0  0  0  0  0  0  0  0  0
   20.9670   -3.8402    5.9519 H   0  0  0  0  0  0  0  0  0  0  0  0
   18.6773   -3.4025    3.9679 H   0  0  0  0  0  0  0  0  0  0  0  0
   19.6571   -4.8695    4.1395 H   0  0  0  0  0  0  0  0  0  0  0  0
   20.4031   -3.3718    3.5512 H   0  0  0  0  0  0  0  0  0  0  0  0
  1  2  1  0  0  0  0
  1 33  1  0  0  0  0
  1 34  1  0  0  0  0
  1 35  1  0  0  0  0
  2  3  1  0  0  0  0
  2 36  1  0  0  0  0
  2 37  1  0  0  0  0
  3  4  1  0  0  0  0
  3 38  1  0  0  0  0
  3 39  1  0  0  0  0
  4  5  1  0  0  0  0
  4 40  1  0  0  0  0
  4 41  1  0  0  0  0
  5  6  1  0  0  0  0
  5 42  1  0  0  0  0
  5 43  1  0  0  0  0
  6  7  1  0  0  0  0
  6 44  1  0  0  0  0
  6 45  1  0  0  0  0
  7  8  1  0  0  0  0
  7 46  1  0  0  0  0
  7 47  1  0  0  0  0
  8  9  1  0  0  0  0
  8 48  1  0  0  0  0
  8 49  1  0  0  0  0
  9 10  1  0  0  0  0
  9 50  1  0  0  0  0
  9 51  1  0  0  0  0
 10 11  1  0  0  0  0
 10 52  1  0  0  0  0
 10 53  1  0  0  0  0
 11 12  1  0  0  0  0
 12 13  2  0  0  0  0
 12 17  1  0  0  0  0
 13 14  1  0  0  0  0
 13 54  1  0  0  0  0
 14 15  2  0  0  0  0
 14 55  1  0  0  0  0
 15 16  1  0  0  0  0
 15 18  1  0  0  0  0
 16 17  2  0  0  0  0
 16 56  1  0  0  0  0
 17 57  1  0  0  0  0
 18 19  1  0  0  0  0
 18 58  1  0  0  0  0
 19 20  2  0  0  0  0
 19 21  1  0  0  0  0
 21 22  1  0  0  0  0
 21 59  1  0  0  0  0
 22 23  2  0  0  0  0
 22 27  1  0  0  0  0
 23 24  1  0  0  0  0
 23 60  1  0  0  0  0
 24 25  2  0  0  0  0
 24 61  1  0  0  0  0
 25 26  1  0  0  0  0
 25 62  1  0  0  0  0
 26 27  2  0  0  0  0
 26 63  1  0  0  0  0
 27 28  1  0  0  0  0
 28 29  1  0  0  0  0
 29 30  1  0  0  0  0
 29 64  1  0  0  0  0
 29 65  1  0  0  0  0
 30 31  1  0  0  0  0
 30 66  1  0  0  0  0
 30 67  1  0  0  0  0
 31 32  1  0  0  0  0
 31 68  1  0  0  0  0
 31 69  1  0  0  0  0
 32 70  1  0  0  0  0
 32 71  1  0  0  0  0
 32 72  1  0  0  0  0
M  END
