
 OpenBabel10072619553D

 35 36  0  0  0  0  0  0  0  0999 V2000
    0.9174   -0.3884   -0.2064 C   0  0  0  0  0  0  0  0  0  0  0  0
    2.2919   -0.6649    0.3703 C   0  0  0  0  0  0  0  0  0  0  0  0
    3.1271   -1.3740   -0.5788 N   0  0  0  0  0  0  0  0  0  0  0  0
    4.4821   -1.5010   -0.3241 C   0  0  0  0  0  0  0  0  0  0  0  0
    5.0207   -0.9965    0.6510 O   0  0  0  0  0  0  0  0  0  0  0  0
    5.0877   -2.2373   -1.3193 N   0  0  0  0  0  0  0  0  0  0  0  0
    6.4286   -2.6627   -1.3782 C   0  0  0  0  0  0  0  0  0  0  0  0
    7.3296   -2.5398   -0.3206 C   0  0  0  0  0  0  0  0  0  0  0  0
    8.6478   -2.9975   -0.4523 C   0  0  0  0  0  0  0  0  0  0  0  0
    9.0884   -3.5898   -1.6425 C   0  0  0  0  0  0  0  0  0  0  0  0
    8.1791   -3.7170   -2.6996 C   0  0  0  0  0  0  0  0  0  0  0  0
    6.8620   -3.2599   -2.5674 C   0  0  0  0  0  0  0  0  0  0  0  0
   10.4620   -4.0660   -1.7842 C   0  0  0  0  0  0  0  0  0  0  0  0
   11.3896   -3.9851   -0.8147 N   0  0  0  0  0  0  0  0  0  0  0  0
   12.4643   -4.5338   -1.4023 N   0  0  0  0  0  0  0  0  0  0  0  0
   12.1837   -4.9265   -2.6684 C   0  0  0  0  0  0  0  0  0  0  0  0
   10.9231   -4.6491   -2.9492 N   0  0  0  0  0  0  0  0  0  0  0  0
   13.3683   -5.6813   -3.7075 S   0  0  0  0  0  0  0  0  0  0  0  0
   14.3566   -4.6565   -3.9434 O   0  0  0  0  0  0  0  0  0  0  0  0
   13.6775   -6.9345   -3.0620 O   0  0  0  0  0  0  0  0  0  0  0  0
   12.6018   -6.0162   -5.1662 N   0  0  0  0  0  0  0  0  0  0  0  0
    0.2992    0.1498    0.5184 H   0  0  0  0  0  0  0  0  0  0  0  0
    0.4068   -1.3212   -0.4676 H   0  0  0  0  0  0  0  0  0  0  0  0
    0.9894    0.2179   -1.1154 H   0  0  0  0  0  0  0  0  0  0  0  0
    2.2124   -1.2801    1.2733 H   0  0  0  0  0  0  0  0  0  0  0  0
    2.7830    0.2753    0.6444 H   0  0  0  0  0  0  0  0  0  0  0  0
    2.7140   -2.1904   -1.0049 H   0  0  0  0  0  0  0  0  0  0  0  0
    4.5373   -2.3514   -2.1567 H   0  0  0  0  0  0  0  0  0  0  0  0
    7.0394   -2.0945    0.6265 H   0  0  0  0  0  0  0  0  0  0  0  0
    9.3272   -2.8845    0.3909 H   0  0  0  0  0  0  0  0  0  0  0  0
    8.4882   -4.1730   -3.6375 H   0  0  0  0  0  0  0  0  0  0  0  0
    6.1860   -3.3761   -3.4104 H   0  0  0  0  0  0  0  0  0  0  0  0
   13.3392   -4.6086   -0.8934 H   0  0  0  0  0  0  0  0  0  0  0  0
   12.3062   -5.1534   -5.6240 H   0  0  0  0  0  0  0  0  0  0  0  0
   11.8308   -6.6701   -5.0279 H   0  0  0  0  0  0  0  0  0  0  0  0
  1  2  1  0  0  0  0
  1 22  1  0  0  0  0
  1 23  1  0  0  0  0
  1 24  1  0  0  0  0
  2  3  1  0  0  0  0
  2 25  1  0  0  0  0
  2 26  1  0  0  0  0
  3  4  1  0  0  0  0
  3 27  1  0  0  0  0
  4  5  2  0  0  0  0
  4  6  1  0  0  0  0
  6  7  1  0  0  0  0
  6 28  1  0  0  0  0
  7  8  2  0  0  0  0
  7 12  1  0  0  0  0
  8  9  1  0  0  0  0
  8 29  1  0  0  0  0
  9 10  2  0  0  0  0
  9 30  1  0  0  0  0
 10 11  1  0  0  0  0
 10 13  1  0  0  0  0
 11 12  2  0  0  0  0
 11 31  1  0  0  0  0
 12 32  1  0  0  0  0
 13 14  2  0  0  0  0
 13 17  1  0  0  0  0
 14 15  1  0  0  0  0
 15 16  1  0  0  0  0
 15 33  1  0  0  0  0
 16 17  2  0  0  0  0
 16 18  1  0  0  0  0
 18 19  2  0  0  0  0
 18 20  2  0  0  0  0
 18 21  1  0  0  0  0
 21 34  1  0  0  0  0
 21 35  1  0  0  0  0
M  END
