
 OpenBabel10072620173D

 47 49  0  0  0  0  0  0  0  0999 V2000
    2.5279   -0.6701    0.0297 C   0  0  0  0  0  0  0  0  0  0  0  0
    1.0454   -0.4072    0.0071 C   0  0  0  0  0  0  0  0  0  0  0  0
    0.4678    0.8795    0.0567 C   0  0  0  0  0  0  0  0  0  0  0  0
   -0.9346    0.9862    0.1214 C   0  0  0  0  0  0  0  0  0  0  0  0
   -1.7494   -0.1463    0.1010 C   0  0  0  0  0  0  0  0  0  0  0  0
   -1.1839   -1.4108    0.0045 C   0  0  0  0  0  0  0  0  0  0  0  0
    0.2037   -1.5379   -0.0392 C   0  0  0  0  0  0  0  0  0  0  0  0
   -3.1748    0.0078    0.0672 N   0  0  0  0  0  0  0  0  0  0  0  0
   -3.8509    0.1500   -1.4946 S   0  0  0  0  0  0  0  0  0  0  0  0
   -2.8446    0.5724   -2.4422 O   0  0  0  0  0  0  0  0  0  0  0  0
   -4.6332   -1.0518   -1.6872 O   0  0  0  0  0  0  0  0  0  0  0  0
   -4.9725    1.5140   -1.2294 C   0  0  0  0  0  0  0  0  0  0  0  0
   -5.6410    1.9060   -2.5432 C   0  0  0  0  0  0  0  0  0  0  0  0
   -6.7595    2.9185   -2.4274 C   0  0  0  0  0  0  0  0  0  0  0  0
   -6.7774    3.9237   -1.4513 C   0  0  0  0  0  0  0  0  0  0  0  0
   -7.8191    4.8546   -1.4062 C   0  0  0  0  0  0  0  0  0  0  0  0
   -8.8429    4.8090   -2.3494 C   0  0  0  0  0  0  0  0  0  0  0  0
   -8.8277    3.8311   -3.3394 C   0  0  0  0  0  0  0  0  0  0  0  0
   -7.7926    2.8946   -3.3790 C   0  0  0  0  0  0  0  0  0  0  0  0
    1.2253    2.0781    0.0376 N   0  0  0  0  0  0  0  0  0  0  0  0
    0.9497    3.1761    0.9344 C   0  0  0  0  0  0  0  0  0  0  0  0
    1.7192    4.3378    0.3422 C   0  0  0  0  0  0  0  0  0  0  0  0
    2.9060    3.6739   -0.3317 C   0  0  0  0  0  0  0  0  0  0  0  0
    2.3574    2.3304   -0.7459 C   0  0  0  0  0  0  0  0  0  0  0  0
    2.8627    1.6410   -1.6171 O   0  0  0  0  0  0  0  0  0  0  0  0
    3.0726    0.1062    0.5753 H   0  0  0  0  0  0  0  0  0  0  0  0
    2.9126   -0.7568   -0.9899 H   0  0  0  0  0  0  0  0  0  0  0  0
    2.7470   -1.6089    0.5522 H   0  0  0  0  0  0  0  0  0  0  0  0
   -1.4148    1.9588    0.1176 H   0  0  0  0  0  0  0  0  0  0  0  0
   -1.8034   -2.3007   -0.0550 H   0  0  0  0  0  0  0  0  0  0  0  0
    0.6379   -2.5341   -0.1151 H   0  0  0  0  0  0  0  0  0  0  0  0
   -3.6592   -0.7637    0.5341 H   0  0  0  0  0  0  0  0  0  0  0  0
   -4.3795    2.3418   -0.8275 H   0  0  0  0  0  0  0  0  0  0  0  0
   -5.7096    1.1935   -0.4857 H   0  0  0  0  0  0  0  0  0  0  0  0
   -6.0429    0.9993   -3.0143 H   0  0  0  0  0  0  0  0  0  0  0  0
   -4.8899    2.3110   -3.2334 H   0  0  0  0  0  0  0  0  0  0  0  0
   -5.9839    4.0091   -0.7145 H   0  0  0  0  0  0  0  0  0  0  0  0
   -7.8253    5.6233   -0.6376 H   0  0  0  0  0  0  0  0  0  0  0  0
   -9.6459    5.5405   -2.3186 H   0  0  0  0  0  0  0  0  0  0  0  0
   -9.6181    3.7997   -4.0853 H   0  0  0  0  0  0  0  0  0  0  0  0
   -7.7965    2.1433   -4.1668 H   0  0  0  0  0  0  0  0  0  0  0  0
    1.3402    2.9101    1.9235 H   0  0  0  0  0  0  0  0  0  0  0  0
   -0.1137    3.4106    1.0199 H   0  0  0  0  0  0  0  0  0  0  0  0
    2.0127    5.0767    1.0924 H   0  0  0  0  0  0  0  0  0  0  0  0
    1.1048    4.8456   -0.4113 H   0  0  0  0  0  0  0  0  0  0  0  0
    3.7359    3.5183    0.3638 H   0  0  0  0  0  0  0  0  0  0  0  0
    3.2449    4.2408   -1.2020 H   0  0  0  0  0  0  0  0  0  0  0  0
  1  2  1  0  0  0  0
  1 26  1  0  0  0  0
  1 27  1  0  0  0  0
  1 28  1  0  0  0  0
  2  3  2  0  0  0  0
  2  7  1  0  0  0  0
  3  4  1  0  0  0  0
  3 20  1  0  0  0  0
  4  5  2  0  0  0  0
  4 29  1  0  0  0  0
  5  6  1  0  0  0  0
  5  8  1  0  0  0  0
  6  7  2  0  0  0  0
  6 30  1  0  0  0  0
  7 31  1  0  0  0  0
  8  9  1  0  0  0  0
  8 32  1  0  0  0  0
  9 10  2  0  0  0  0
  9 11  2  0  0  0  0
  9 12  1  0  0  0  0
 12 13  1  0  0  0  0
 12 33  1  0  0  0  0
 12 34  1  0  0  0  0
 13 14  1  0  0  0  0
 13 35  1  0  0  0  0
 13 36  1  0  0  0  0
 14 15  2  0  0  0  0
 14 19  1  0  0  0  0
 15 16  1  0  0  0  0
 15 37  1  0  0  0  0
 16 17  2  0  0  0  0
 16 38  1  0  0  0  0
 17 18  1  0  0  0  0
 17 39  1  0  0  0  0
 18 19  2  0  0  0  0
 18 40  1  0  0  0  0
 19 41  1  0  0  0  0
 20 21  1  0  0  0  0
 20 24  1  0  0  0  0
 21 22  1  0  0  0  0
 21 42  1  0  0  0  0
 21 43  1  0  0  0  0
 22 23  1  0  0  0  0
 22 44  1  0  0  0  0
 22 45  1  0  0  0  0
 23 24  1  0  0  0  0
 23 46  1  0  0  0  0
 23 47  1  0  0  0  0
 24 25  2  0  0  0  0
M  END
