
 OpenBabel10072620023D

 55 56  0  0  1  0  0  0  0  0999 V2000
    5.0384   -1.6030    0.0801 C   0  0  0  0  0  0  0  0  0  0  0  0
    4.5438   -0.5908    0.9461 O   0  0  0  0  0  0  0  0  0  0  0  0
    5.3654   -0.2008    1.9725 C   0  0  0  0  0  0  0  0  0  0  0  0
    6.3009   -0.9899    2.6630 C   0  0  0  0  0  0  0  0  0  0  0  0
    7.0199   -0.4181    3.7246 C   0  0  0  0  0  0  0  0  0  0  0  0
    6.8353    0.9258    4.0891 C   0  0  0  0  0  0  0  0  0  0  0  0
    5.9026    1.6971    3.3918 C   0  0  0  0  0  0  0  0  0  0  0  0
    5.1679    1.1325    2.3518 C   0  0  0  0  0  0  0  0  0  0  0  0
    7.6075    1.5191    5.2443 C   0  0  0  0  0  0  0  0  0  0  0  0
    6.9609    1.2704    6.6185 C   0  0  0  0  0  0  0  0  0  0  0  0
    5.6983    2.0070    6.7690 N   0  0  0  0  0  0  0  0  0  0  0  0
    5.0733    1.7907    8.0804 C   0  0  0  0  0  0  0  0  0  0  0  0
    5.8179    2.3959    9.2846 C   0  0  3  0  0  0  0  0  0  0  0  0
    6.0557    3.9033    9.1229 C   0  0  0  0  0  0  0  0  0  0  0  0
    6.7678    4.3547   10.2862 O   0  0  0  0  0  0  0  0  0  0  0  0
    7.1182    5.6763   10.3177 C   0  0  0  0  0  0  0  0  0  0  0  0
    6.8328    6.6263    9.3384 C   0  0  0  0  0  0  0  0  0  0  0  0
    7.2514    7.9557    9.4959 C   0  0  0  0  0  0  0  0  0  0  0  0
    7.9571    8.3501   10.6327 C   0  0  0  0  0  0  0  0  0  0  0  0
    8.2455    7.3935   11.6111 C   0  0  0  0  0  0  0  0  0  0  0  0
    7.8258    6.0686   11.4541 C   0  0  0  0  0  0  0  0  0  0  0  0
    8.4192    9.6611   10.8540 N   0  0  0  0  0  0  0  0  0  0  0  0
    8.1539   10.7777   10.1085 C   0  0  0  0  0  0  0  0  0  0  0  0
    7.4019   10.8967    9.1528 O   0  0  0  0  0  0  0  0  0  0  0  0
    8.8512   11.8613   10.5609 N   0  0  0  0  0  0  0  0  0  0  0  0
    5.0367    2.1620   10.4681 O   0  0  0  0  0  0  0  0  0  0  0  0
    6.4202   -2.3103    2.3160 O   0  0  0  0  0  0  0  0  0  0  0  0
    7.6400   -2.9596    2.6544 C   0  0  0  0  0  0  0  0  0  0  0  0
    4.8294   -2.5956    0.4894 H   0  0  0  0  0  0  0  0  0  0  0  0
    6.1027   -1.4736   -0.1445 H   0  0  0  0  0  0  0  0  0  0  0  0
    4.4930   -1.5204   -0.8652 H   0  0  0  0  0  0  0  0  0  0  0  0
    7.7185   -1.0132    4.3050 H   0  0  0  0  0  0  0  0  0  0  0  0
    5.7315    2.7372    3.6624 H   0  0  0  0  0  0  0  0  0  0  0  0
    4.4334    1.7368    1.8242 H   0  0  0  0  0  0  0  0  0  0  0  0
    7.7494    2.5960    5.0820 H   0  0  0  0  0  0  0  0  0  0  0  0
    8.6174    1.0880    5.2459 H   0  0  0  0  0  0  0  0  0  0  0  0
    7.6758    1.6054    7.3784 H   0  0  0  0  0  0  0  0  0  0  0  0
    6.7909    0.1965    6.7643 H   0  0  0  0  0  0  0  0  0  0  0  0
    5.0493    1.6720    6.0515 H   0  0  0  0  0  0  0  0  0  0  0  0
    4.9056    0.7197    8.2512 H   0  0  0  0  0  0  0  0  0  0  0  0
    4.0677    2.2298    8.0452 H   0  0  0  0  0  0  0  0  0  0  0  0
    6.7727    1.8837    9.4472 H   0  0  0  0  0  0  0  0  0  0  0  0
    5.0921    4.4242    9.0695 H   0  0  0  0  0  0  0  0  0  0  0  0
    6.6542    4.0960    8.2257 H   0  0  0  0  0  0  0  0  0  0  0  0
    6.2829    6.3759    8.4369 H   0  0  0  0  0  0  0  0  0  0  0  0
    7.0112    8.6604    8.7046 H   0  0  0  0  0  0  0  0  0  0  0  0
    8.7925    7.6625   12.5102 H   0  0  0  0  0  0  0  0  0  0  0  0
    8.0560    5.3385   12.2262 H   0  0  0  0  0  0  0  0  0  0  0  0
    8.8925    9.8370   11.7274 H   0  0  0  0  0  0  0  0  0  0  0  0
    9.8097   11.7008   10.8341 H   0  0  0  0  0  0  0  0  0  0  0  0
    8.7274   12.6707    9.9635 H   0  0  0  0  0  0  0  0  0  0  0  0
    5.4413    2.7169   11.1627 H   0  0  0  0  0  0  0  0  0  0  0  0
    7.6769   -3.9043    2.1032 H   0  0  0  0  0  0  0  0  0  0  0  0
    7.6715   -3.1977    3.7221 H   0  0  0  0  0  0  0  0  0  0  0  0
    8.5105   -2.3658    2.3547 H   0  0  0  0  0  0  0  0  0  0  0  0
  1  2  1  0  0  0  0
  1 29  1  0  0  0  0
  1 30  1  0  0  0  0
  1 31  1  0  0  0  0
  2  3  1  0  0  0  0
  3  4  2  0  0  0  0
  3  8  1  0  0  0  0
  4  5  1  0  0  0  0
  4 27  1  0  0  0  0
  5  6  2  0  0  0  0
  5 32  1  0  0  0  0
  6  7  1  0  0  0  0
  6  9  1  0  0  0  0
  7  8  2  0  0  0  0
  7 33  1  0  0  0  0
  8 34  1  0  0  0  0
  9 10  1  0  0  0  0
  9 35  1  0  0  0  0
  9 36  1  0  0  0  0
 10 11  1  0  0  0  0
 10 37  1  0  0  0  0
 10 38  1  0  0  0  0
 11 12  1  0  0  0  0
 11 39  1  0  0  0  0
 12 13  1  0  0  0  0
 12 40  1  0  0  0  0
 12 41  1  0  0  0  0
 13 14  1  0  0  0  0
 13 26  1  0  0  0  0
 13 42  1  0  0  0  0
 14 15  1  0  0  0  0
 14 43  1  0  0  0  0
 14 44  1  0  0  0  0
 15 16  1  0  0  0  0
 16 17  2  0  0  0  0
 16 21  1  0  0  0  0
 17 18  1  0  0  0  0
 17 45  1  0  0  0  0
 18 19  2  0  0  0  0
 18 46  1  0  0  0  0
 19 20  1  0  0  0  0
 19 22  1  0  0  0  0
 20 21  2  0  0  0  0
 20 47  1  0  0  0  0
 21 48  1  0  0  0  0
 22 23  1  0  0  0  0
 22 49  1  0  0  0  0
 23 24  2  0  0  0  0
 23 25  1  0  0  0  0
 25 50  1  0  0  0  0
 25 51  1  0  0  0  0
 26 52  1  0  0  0  0
 27 28  1  0  0  0  0
 28 53  1  0  0  0  0
 28 54  1  0  0  0  0
 28 55  1  0  0  0  0
M  END
