
 OpenBabel10072619593D

 41 44  0  0  0  0  0  0  0  0999 V2000
   -1.9023   -0.8770   -1.8560 C   0  0  0  0  0  0  0  0  0  0  0  0
   -0.5714   -1.0983   -2.2138 C   0  0  0  0  0  0  0  0  0  0  0  0
    0.3469   -0.6096   -1.3014 C   0  0  0  0  0  0  0  0  0  0  0  0
   -0.0107    0.0445   -0.1353 C   0  0  0  0  0  0  0  0  0  0  0  0
   -1.2964    0.2701    0.2222 N   0  0  0  0  0  0  0  0  0  0  0  0
   -2.1996   -0.2102   -0.6657 C   0  0  0  0  0  0  0  0  0  0  0  0
    1.1045    0.4041    0.5639 N   0  0  0  0  0  0  0  0  0  0  0  0
    2.0962   -0.0377   -0.1894 C   0  0  0  0  0  0  0  0  0  0  0  0
    1.7064   -0.6662   -1.3499 O   0  0  0  0  0  0  0  0  0  0  0  0
    3.5378    0.0625    0.0423 C   0  0  0  0  0  0  0  0  0  0  0  0
    4.0099    0.5652    1.2710 C   0  0  0  0  0  0  0  0  0  0  0  0
    5.3794    0.7206    1.5201 C   0  0  0  0  0  0  0  0  0  0  0  0
    6.2841    0.3856    0.4962 C   0  0  0  0  0  0  0  0  0  0  0  0
    5.8347   -0.1360   -0.7184 C   0  0  0  0  0  0  0  0  0  0  0  0
    4.4667   -0.2984   -0.9432 C   0  0  0  0  0  0  0  0  0  0  0  0
    7.9913    0.5843    0.7035 Cl  0  0  0  0  0  0  0  0  0  0  0  0
    5.8939    1.2851    2.7153 N   0  0  0  0  0  0  0  0  0  0  0  0
    5.3750    1.3845    3.9813 C   0  0  0  0  0  0  0  0  0  0  0  0
    4.0886    0.5562    4.6551 S   0  0  0  0  0  0  0  0  0  0  0  0
    6.0316    2.2739    4.8194 N   0  0  0  0  0  0  0  0  0  0  0  0
    7.1048    3.1055    4.5333 C   0  0  0  0  0  0  0  0  0  0  0  0
    7.7082    3.0989    3.4637 O   0  0  0  0  0  0  0  0  0  0  0  0
    7.5134    4.0568    5.6023 C   0  0  0  0  0  0  0  0  0  0  0  0
    7.4015    3.7476    6.9647 C   0  0  0  0  0  0  0  0  0  0  0  0
    7.8099    4.6798    7.9241 C   0  0  0  0  0  0  0  0  0  0  0  0
    8.3292    5.9123    7.5265 C   0  0  0  0  0  0  0  0  0  0  0  0
    8.4495    6.2235    6.1737 C   0  0  0  0  0  0  0  0  0  0  0  0
    8.0502    5.2922    5.2119 C   0  0  0  0  0  0  0  0  0  0  0  0
    8.8293    7.0486    8.7163 Cl  0  0  0  0  0  0  0  0  0  0  0  0
   -2.7068   -1.2216   -2.4989 H   0  0  0  0  0  0  0  0  0  0  0  0
   -0.2767   -1.6093   -3.1201 H   0  0  0  0  0  0  0  0  0  0  0  0
   -3.2375   -0.0389   -0.3843 H   0  0  0  0  0  0  0  0  0  0  0  0
    3.2710    0.8861    2.0010 H   0  0  0  0  0  0  0  0  0  0  0  0
    6.5426   -0.4075   -1.4972 H   0  0  0  0  0  0  0  0  0  0  0  0
    4.1371   -0.6887   -1.9040 H   0  0  0  0  0  0  0  0  0  0  0  0
    6.8562    1.6267    2.6332 H   0  0  0  0  0  0  0  0  0  0  0  0
    5.5731    2.3691    5.7142 H   0  0  0  0  0  0  0  0  0  0  0  0
    7.0350    2.7817    7.3014 H   0  0  0  0  0  0  0  0  0  0  0  0
    7.7318    4.4352    8.9808 H   0  0  0  0  0  0  0  0  0  0  0  0
    8.8575    7.1812    5.8608 H   0  0  0  0  0  0  0  0  0  0  0  0
    8.1604    5.5329    4.1549 H   0  0  0  0  0  0  0  0  0  0  0  0
  1  2  2  0  0  0  0
  1  6  1  0  0  0  0
  1 30  1  0  0  0  0
  2  3  1  0  0  0  0
  2 31  1  0  0  0  0
  3  4  2  0  0  0  0
  3  9  1  0  0  0  0
  4  5  1  0  0  0  0
  4  7  1  0  0  0  0
  5  6  2  0  0  0  0
  6 32  1  0  0  0  0
  7  8  2  0  0  0  0
  8  9  1  0  0  0  0
  8 10  1  0  0  0  0
 10 11  2  0  0  0  0
 10 15  1  0  0  0  0
 11 12  1  0  0  0  0
 11 33  1  0  0  0  0
 12 13  2  0  0  0  0
 12 17  1  0  0  0  0
 13 14  1  0  0  0  0
 13 16  1  0  0  0  0
 14 15  2  0  0  0  0
 14 34  1  0  0  0  0
 15 35  1  0  0  0  0
 17 18  1  0  0  0  0
 17 36  1  0  0  0  0
 18 19  2  0  0  0  0
 18 20  1  0  0  0  0
 20 21  1  0  0  0  0
 20 37  1  0  0  0  0
 21 22  2  0  0  0  0
 21 23  1  0  0  0  0
 23 24  2  0  0  0  0
 23 28  1  0  0  0  0
 24 25  1  0  0  0  0
 24 38  1  0  0  0  0
 25 26  2  0  0  0  0
 25 39  1  0  0  0  0
 26 27  1  0  0  0  0
 26 29  1  0  0  0  0
 27 28  2  0  0  0  0
 27 40  1  0  0  0  0
 28 41  1  0  0  0  0
M  END
