
 OpenBabel10072619593D

 36 37  0  0  0  0  0  0  0  0999 V2000
   -1.1526    0.9021   -0.4144 C   0  0  0  0  0  0  0  0  0  0  0  0
   -1.0578   -0.6204   -0.4060 C   0  0  0  0  0  0  0  0  0  0  0  0
    0.3749   -1.1002   -0.6267 C   0  0  0  0  0  0  0  0  0  0  0  0
    1.3498   -0.4699    0.3782 C   0  0  0  0  0  0  0  0  0  0  0  0
    1.2424    1.0589    0.3606 C   0  0  0  0  0  0  0  0  0  0  0  0
   -0.1918    1.5271    0.5917 C   0  0  0  0  0  0  0  0  0  0  0  0
    2.7229   -0.8754    0.0961 N   0  0  0  0  0  0  0  0  0  0  0  0
    3.1941   -2.1097    0.5052 C   0  0  0  0  0  0  0  0  0  0  0  0
    2.5198   -2.8916    1.1605 O   0  0  0  0  0  0  0  0  0  0  0  0
    4.4983   -2.2897    0.0948 N   0  0  0  0  0  0  0  0  0  0  0  0
    5.3010   -3.4348    0.2640 C   0  0  0  0  0  0  0  0  0  0  0  0
    4.8217   -4.6551    0.7500 C   0  0  0  0  0  0  0  0  0  0  0  0
    5.6795   -5.7522    0.8970 C   0  0  0  0  0  0  0  0  0  0  0  0
    7.0276   -5.6285    0.5464 C   0  0  0  0  0  0  0  0  0  0  0  0
    7.5196   -4.4174    0.0476 C   0  0  0  0  0  0  0  0  0  0  0  0
    6.6532   -3.3278   -0.0926 C   0  0  0  0  0  0  0  0  0  0  0  0
    7.9317   -6.7747    0.7002 N   0  3  0  0  0  0  0  0  0  0  0  0
    7.4514   -7.8385    1.1161 O   0  0  0  0  0  0  0  0  0  0  0  0
    9.1237   -6.6109    0.4020 O   0  5  0  0  0  0  0  0  0  0  0  0
   -2.1790    1.2088   -0.1838 H   0  0  0  0  0  0  0  0  0  0  0  0
   -0.9242    1.2777   -1.4195 H   0  0  0  0  0  0  0  0  0  0  0  0
   -1.7086   -1.0331   -1.1852 H   0  0  0  0  0  0  0  0  0  0  0  0
   -1.4258   -1.0024    0.5542 H   0  0  0  0  0  0  0  0  0  0  0  0
    0.6865   -0.8514   -1.6496 H   0  0  0  0  0  0  0  0  0  0  0  0
    0.4063   -2.1937   -0.5525 H   0  0  0  0  0  0  0  0  0  0  0  0
    1.0945   -0.8262    1.3849 H   0  0  0  0  0  0  0  0  0  0  0  0
    1.6009    1.4480   -0.6015 H   0  0  0  0  0  0  0  0  0  0  0  0
    1.8955    1.4868    1.1307 H   0  0  0  0  0  0  0  0  0  0  0  0
   -0.2400    2.6193    0.5183 H   0  0  0  0  0  0  0  0  0  0  0  0
   -0.5041    1.2597    1.6087 H   0  0  0  0  0  0  0  0  0  0  0  0
    3.1257   -0.5174   -0.7570 H   0  0  0  0  0  0  0  0  0  0  0  0
    4.9606   -1.4564   -0.2348 H   0  0  0  0  0  0  0  0  0  0  0  0
    3.7779   -4.7881    1.0221 H   0  0  0  0  0  0  0  0  0  0  0  0
    5.2768   -6.6858    1.2850 H   0  0  0  0  0  0  0  0  0  0  0  0
    8.5649   -4.3041   -0.2326 H   0  0  0  0  0  0  0  0  0  0  0  0
    7.0543   -2.3939   -0.4798 H   0  0  0  0  0  0  0  0  0  0  0  0
  1  2  1  0  0  0  0
  1  6  1  0  0  0  0
  1 20  1  0  0  0  0
  1 21  1  0  0  0  0
  2  3  1  0  0  0  0
  2 22  1  0  0  0  0
  2 23  1  0  0  0  0
  3  4  1  0  0  0  0
  3 24  1  0  0  0  0
  3 25  1  0  0  0  0
  4  5  1  0  0  0  0
  4  7  1  0  0  0  0
  4 26  1  0  0  0  0
  5  6  1  0  0  0  0
  5 27  1  0  0  0  0
  5 28  1  0  0  0  0
  6 29  1  0  0  0  0
  6 30  1  0  0  0  0
  7  8  1  0  0  0  0
  7 31  1  0  0  0  0
  8  9  2  0  0  0  0
  8 10  1  0  0  0  0
 10 11  1  0  0  0  0
 10 32  1  0  0  0  0
 11 12  2  0  0  0  0
 11 16  1  0  0  0  0
 12 13  1  0  0  0  0
 12 33  1  0  0  0  0
 13 14  2  0  0  0  0
 13 34  1  0  0  0  0
 14 15  1  0  0  0  0
 14 17  1  0  0  0  0
 15 16  2  0  0  0  0
 15 35  1  0  0  0  0
 16 36  1  0  0  0  0
 17 18  2  0  0  0  0
 17 19  1  0  0  0  0
M  CHG  2  17   1  19  -1
M  END
