
 OpenBabel10072619483D

 56 57  0  0  1  0  0  0  0  0999 V2000
    8.8446   -8.0465    1.2379 C   0  0  0  0  0  0  0  0  0  0  0  0
    9.1192   -6.5750    1.5009 C   0  0  0  0  0  0  0  0  0  0  0  0
    8.0443   -5.6778    0.8844 C   0  0  0  0  0  0  0  0  0  0  0  0
    8.2059   -4.1996    1.2597 C   0  0  0  0  0  0  0  0  0  0  0  0
    9.5212   -3.5455    0.8203 C   0  0  0  0  0  0  0  0  0  0  0  0
    9.8073   -3.6059   -0.6816 C   0  0  0  0  0  0  0  0  0  0  0  0
    8.8221   -2.7877   -1.5069 C   0  0  0  0  0  0  0  0  0  0  0  0
    9.0613   -2.9885   -2.9796 C   0  0  0  0  0  0  0  0  0  0  0  0
    9.6834   -2.2212   -3.6972 O   0  0  0  0  0  0  0  0  0  0  0  0
    8.4864   -4.1517   -3.3893 O   0  0  0  0  0  0  0  0  0  0  0  0
    8.4090   -4.3310   -4.8184 C   0  0  1  0  0  0  0  0  0  0  0  0
    9.6972   -4.9125   -5.3763 C   0  0  1  0  0  0  0  0  0  0  0  0
    9.5347   -6.4123   -5.1553 C   0  0  2  0  0  0  0  0  0  0  0  0
    8.1187   -6.6905   -5.2751 O   0  0  0  0  0  0  0  0  0  0  0  0
    7.3912   -5.4451   -5.1491 C   0  0  1  0  0  0  0  0  0  0  0  0
    6.2933   -5.5678   -4.1870 N   0  0  0  0  0  0  0  0  0  0  0  0
    6.1671   -6.6616   -3.3495 C   0  0  0  0  0  0  0  0  0  0  0  0
    5.2248   -6.7587   -2.3991 C   0  0  0  0  0  0  0  0  0  0  0  0
    4.2694   -5.6155   -2.2823 C   0  0  0  0  0  0  0  0  0  0  0  0
    3.3870   -5.5831   -1.4301 O   0  0  0  0  0  0  0  0  0  0  0  0
    4.4337   -4.5948   -3.1731 N   0  0  0  0  0  0  0  0  0  0  0  0
    5.4125   -4.4996   -4.1207 C   0  0  0  0  0  0  0  0  0  0  0  0
    5.4885   -3.5092   -4.8422 O   0  0  0  0  0  0  0  0  0  0  0  0
    5.0385   -7.9183   -1.5413 C   0  0  0  0  0  0  0  0  0  0  0  0
    5.9723   -8.8181   -1.2089 C   0  0  0  0  0  0  0  0  0  0  0  0
    5.6475  -10.2785   -0.1089 Br  0  0  0  0  0  0  0  0  0  0  0  0
    9.9963   -6.9038   -3.7808 C   0  0  0  0  0  0  0  0  0  0  0  0
    9.8349   -8.3222   -3.7010 O   0  0  0  0  0  0  0  0  0  0  0  0
    9.7810   -4.6315   -6.7803 O   0  0  0  0  0  0  0  0  0  0  0  0
    9.6285   -8.6624    1.6884 H   0  0  0  0  0  0  0  0  0  0  0  0
    8.8226   -8.2587    0.1651 H   0  0  0  0  0  0  0  0  0  0  0  0
    7.8876   -8.3490    1.6734 H   0  0  0  0  0  0  0  0  0  0  0  0
   10.1051   -6.3242    1.0945 H   0  0  0  0  0  0  0  0  0  0  0  0
    9.1590   -6.4102    2.5837 H   0  0  0  0  0  0  0  0  0  0  0  0
    7.0580   -6.0067    1.2341 H   0  0  0  0  0  0  0  0  0  0  0  0
    8.0344   -5.7945   -0.2056 H   0  0  0  0  0  0  0  0  0  0  0  0
    8.1233   -4.1014    2.3499 H   0  0  0  0  0  0  0  0  0  0  0  0
    7.3600   -3.6375    0.8457 H   0  0  0  0  0  0  0  0  0  0  0  0
   10.3551   -4.0136    1.3564 H   0  0  0  0  0  0  0  0  0  0  0  0
    9.5097   -2.4958    1.1398 H   0  0  0  0  0  0  0  0  0  0  0  0
    9.8285   -4.6463   -1.0245 H   0  0  0  0  0  0  0  0  0  0  0  0
   10.8187   -3.2189   -0.8593 H   0  0  0  0  0  0  0  0  0  0  0  0
    8.9232   -1.7189   -1.2843 H   0  0  0  0  0  0  0  0  0  0  0  0
    7.7795   -3.0526   -1.2977 H   0  0  0  0  0  0  0  0  0  0  0  0
    8.1064   -3.3904   -5.2940 H   0  0  0  0  0  0  0  0  0  0  0  0
   10.6041   -4.5217   -4.9065 H   0  0  0  0  0  0  0  0  0  0  0  0
   10.0330   -6.9963   -5.9376 H   0  0  0  0  0  0  0  0  0  0  0  0
    6.9549   -5.2563   -6.1379 H   0  0  0  0  0  0  0  0  0  0  0  0
    6.8777   -7.4665   -3.5012 H   0  0  0  0  0  0  0  0  0  0  0  0
    3.7964   -3.8175   -3.0978 H   0  0  0  0  0  0  0  0  0  0  0  0
    4.0330   -8.0310   -1.1328 H   0  0  0  0  0  0  0  0  0  0  0  0
    7.0006   -8.7778   -1.5483 H   0  0  0  0  0  0  0  0  0  0  0  0
   11.0517   -6.6731   -3.6092 H   0  0  0  0  0  0  0  0  0  0  0  0
    9.4025   -6.4784   -2.9687 H   0  0  0  0  0  0  0  0  0  0  0  0
    9.0225   -8.5437   -4.1940 H   0  0  0  0  0  0  0  0  0  0  0  0
    9.2660   -5.2910   -7.2791 H   0  0  0  0  0  0  0  0  0  0  0  0
  1  2  1  0  0  0  0
  1 30  1  0  0  0  0
  1 31  1  0  0  0  0
  1 32  1  0  0  0  0
  2  3  1  0  0  0  0
  2 33  1  0  0  0  0
  2 34  1  0  0  0  0
  3  4  1  0  0  0  0
  3 35  1  0  0  0  0
  3 36  1  0  0  0  0
  4  5  1  0  0  0  0
  4 37  1  0  0  0  0
  4 38  1  0  0  0  0
  5  6  1  0  0  0  0
  5 39  1  0  0  0  0
  5 40  1  0  0  0  0
  6  7  1  0  0  0  0
  6 41  1  0  0  0  0
  6 42  1  0  0  0  0
  7  8  1  0  0  0  0
  7 43  1  0  0  0  0
  7 44  1  0  0  0  0
  8  9  2  0  0  0  0
  8 10  1  0  0  0  0
 10 11  1  0  0  0  0
 11 12  1  0  0  0  0
 11 15  1  0  0  0  0
 11 45  1  6  0  0  0
 12 13  1  0  0  0  0
 12 29  1  0  0  0  0
 12 46  1  1  0  0  0
 13 14  1  0  0  0  0
 13 27  1  0  0  0  0
 13 47  1  6  0  0  0
 14 15  1  0  0  0  0
 15 16  1  0  0  0  0
 15 48  1  6  0  0  0
 16 17  1  0  0  0  0
 16 22  1  0  0  0  0
 17 18  2  0  0  0  0
 17 49  1  0  0  0  0
 18 19  1  0  0  0  0
 18 24  1  0  0  0  0
 19 20  2  0  0  0  0
 19 21  1  0  0  0  0
 21 22  1  0  0  0  0
 21 50  1  0  0  0  0
 22 23  2  0  0  0  0
 24 25  2  0  0  0  0
 24 51  1  0  0  0  0
 25 26  1  0  0  0  0
 25 52  1  0  0  0  0
 27 28  1  0  0  0  0
 27 53  1  0  0  0  0
 27 54  1  0  0  0  0
 28 55  1  0  0  0  0
 29 56  1  0  0  0  0
M  END
