
 OpenBabel10072619533D

 54 57  0  0  0  0  0  0  0  0999 V2000
    0.8691   -2.2802    1.8909 C   0  0  0  0  0  0  0  0  0  0  0  0
   -0.3665   -1.4373    1.7840 C   0  0  0  0  0  0  0  0  0  0  0  0
   -0.9253   -1.1275    0.5406 C   0  0  0  0  0  0  0  0  0  0  0  0
   -2.0549   -0.3030    0.4482 C   0  0  0  0  0  0  0  0  0  0  0  0
   -2.6350    0.2363    1.5940 C   0  0  0  0  0  0  0  0  0  0  0  0
   -2.0956   -0.1070    2.8417 C   0  0  0  0  0  0  0  0  0  0  0  0
   -0.9639   -0.9224    2.9362 C   0  0  0  0  0  0  0  0  0  0  0  0
   -3.7680    1.0791    1.6063 N   0  0  0  0  0  0  0  0  0  0  0  0
   -4.3095    1.9178    0.6362 C   0  0  0  0  0  0  0  0  0  0  0  0
   -3.6190    2.3993   -0.8137 S   0  0  0  0  0  0  0  0  0  0  0  0
   -5.5284    2.4261    1.1019 N   0  0  0  0  0  0  0  0  0  0  0  0
   -6.2648    3.3413    0.3251 N   0  0  0  0  0  0  0  0  0  0  0  0
   -7.6076    2.9753    0.1149 C   0  0  0  0  0  0  0  0  0  0  0  0
   -8.1801    2.1110    0.9499 N   0  0  0  0  0  0  0  0  0  0  0  0
   -9.4551    1.8367    0.7089 C   0  0  0  0  0  0  0  0  0  0  0  0
  -10.1416    2.3993   -0.2804 N   0  0  0  0  0  0  0  0  0  0  0  0
   -9.4965    3.2490   -1.0695 C   0  0  0  0  0  0  0  0  0  0  0  0
   -8.2146    3.5452   -0.9151 N   0  0  0  0  0  0  0  0  0  0  0  0
  -10.1910    3.8284   -2.1063 N   0  0  0  0  0  0  0  0  0  0  0  0
   -9.6673    4.9994   -2.7948 C   0  0  0  0  0  0  0  0  0  0  0  0
  -10.9192    5.7851   -3.1976 C   0  0  0  0  0  0  0  0  0  0  0  0
  -12.0129    4.7283   -3.2438 C   0  0  0  0  0  0  0  0  0  0  0  0
  -11.6432    3.8158   -2.0789 C   0  0  0  0  0  0  0  0  0  0  0  0
  -10.1042    0.9538    1.5292 N   0  0  0  0  0  0  0  0  0  0  0  0
   -9.3790    0.0139    2.3666 C   0  0  0  0  0  0  0  0  0  0  0  0
  -10.3495   -1.1604    2.5267 C   0  0  0  0  0  0  0  0  0  0  0  0
  -11.7180   -0.5262    2.3189 C   0  0  0  0  0  0  0  0  0  0  0  0
  -11.4480    0.4980    1.2194 C   0  0  0  0  0  0  0  0  0  0  0  0
    1.1242   -2.7416    0.9316 H   0  0  0  0  0  0  0  0  0  0  0  0
    0.7191   -3.0860    2.6169 H   0  0  0  0  0  0  0  0  0  0  0  0
    1.7164   -1.6642    2.2089 H   0  0  0  0  0  0  0  0  0  0  0  0
   -0.4869   -1.5231   -0.3731 H   0  0  0  0  0  0  0  0  0  0  0  0
   -2.4651   -0.1271   -0.5397 H   0  0  0  0  0  0  0  0  0  0  0  0
   -2.5276    0.2812    3.7599 H   0  0  0  0  0  0  0  0  0  0  0  0
   -0.5471   -1.1430    3.9166 H   0  0  0  0  0  0  0  0  0  0  0  0
   -4.1386    1.2655    2.5286 H   0  0  0  0  0  0  0  0  0  0  0  0
   -6.1122    1.8561    1.7134 H   0  0  0  0  0  0  0  0  0  0  0  0
   -5.8539    3.5684   -0.5809 H   0  0  0  0  0  0  0  0  0  0  0  0
   -9.1089    4.6836   -3.6826 H   0  0  0  0  0  0  0  0  0  0  0  0
   -9.0182    5.6285   -2.1754 H   0  0  0  0  0  0  0  0  0  0  0  0
  -10.7957    6.3103   -4.1491 H   0  0  0  0  0  0  0  0  0  0  0  0
  -11.1535    6.5294   -2.4268 H   0  0  0  0  0  0  0  0  0  0  0  0
  -11.9605    4.1773   -4.1907 H   0  0  0  0  0  0  0  0  0  0  0  0
  -13.0162    5.1519   -3.1445 H   0  0  0  0  0  0  0  0  0  0  0  0
  -12.0570    2.8119   -2.2183 H   0  0  0  0  0  0  0  0  0  0  0  0
  -12.0233    4.2379   -1.1398 H   0  0  0  0  0  0  0  0  0  0  0  0
   -9.1668    0.4729    3.3383 H   0  0  0  0  0  0  0  0  0  0  0  0
   -8.4393   -0.3350    1.9230 H   0  0  0  0  0  0  0  0  0  0  0  0
  -10.2515   -1.6538    3.4981 H   0  0  0  0  0  0  0  0  0  0  0  0
  -10.1643   -1.9067    1.7444 H   0  0  0  0  0  0  0  0  0  0  0  0
  -12.0355   -0.0192    3.2382 H   0  0  0  0  0  0  0  0  0  0  0  0
  -12.4878   -1.2520    2.0408 H   0  0  0  0  0  0  0  0  0  0  0  0
  -12.1829    1.3093    1.2518 H   0  0  0  0  0  0  0  0  0  0  0  0
  -11.4848    0.0140    0.2356 H   0  0  0  0  0  0  0  0  0  0  0  0
  1  2  1  0  0  0  0
  1 29  1  0  0  0  0
  1 30  1  0  0  0  0
  1 31  1  0  0  0  0
  2  3  2  0  0  0  0
  2  7  1  0  0  0  0
  3  4  1  0  0  0  0
  3 32  1  0  0  0  0
  4  5  2  0  0  0  0
  4 33  1  0  0  0  0
  5  6  1  0  0  0  0
  5  8  1  0  0  0  0
  6  7  2  0  0  0  0
  6 34  1  0  0  0  0
  7 35  1  0  0  0  0
  8  9  1  0  0  0  0
  8 36  1  0  0  0  0
  9 10  2  0  0  0  0
  9 11  1  0  0  0  0
 11 12  1  0  0  0  0
 11 37  1  0  0  0  0
 12 13  1  0  0  0  0
 12 38  1  0  0  0  0
 13 14  2  0  0  0  0
 13 18  1  0  0  0  0
 14 15  1  0  0  0  0
 15 16  2  0  0  0  0
 15 24  1  0  0  0  0
 16 17  1  0  0  0  0
 17 18  2  0  0  0  0
 17 19  1  0  0  0  0
 19 20  1  0  0  0  0
 19 23  1  0  0  0  0
 20 21  1  0  0  0  0
 20 39  1  0  0  0  0
 20 40  1  0  0  0  0
 21 22  1  0  0  0  0
 21 41  1  0  0  0  0
 21 42  1  0  0  0  0
 22 23  1  0  0  0  0
 22 43  1  0  0  0  0
 22 44  1  0  0  0  0
 23 45  1  0  0  0  0
 23 46  1  0  0  0  0
 24 25  1  0  0  0  0
 24 28  1  0  0  0  0
 25 26  1  0  0  0  0
 25 47  1  0  0  0  0
 25 48  1  0  0  0  0
 26 27  1  0  0  0  0
 26 49  1  0  0  0  0
 26 50  1  0  0  0  0
 27 28  1  0  0  0  0
 27 51  1  0  0  0  0
 27 52  1  0  0  0  0
 28 53  1  0  0  0  0
 28 54  1  0  0  0  0
M  END
