
 OpenBabel10072616343D

 60 62  0  0  1  0  0  0  0  0999 V2000
   -2.3370   -0.4590   -0.8780 C   0  0  0  0  0  0  0  0  0  0  0  0
   -2.7270    0.4300    0.3080 N   0  0  0  0  0  0  0  0  0  0  0  0
   -1.5090    1.2470    0.7450 C   0  0  0  0  0  0  0  0  0  0  0  0
   -0.4390    0.3620    1.0810 C   0  0  0  0  0  0  0  0  0  0  0  0
    0.0000   -0.4620    0.0000 N   0  3  3  0  0  0  0  0  0  0  0  0
   -1.1580   -1.3470   -0.4690 C   0  0  0  0  0  0  0  0  0  0  0  0
    1.1570   -1.3470    0.4700 C   0  0  0  0  0  0  0  0  0  0  0  0
    2.3360   -0.4580    0.8780 C   0  0  0  0  0  0  0  0  0  0  0  0
    2.7270    0.4300   -0.3070 N   0  3  3  0  0  0  0  0  0  0  0  0
    1.5090    1.2470   -0.7460 C   0  0  0  0  0  0  0  0  0  0  0  0
    0.4390    0.3620   -1.0820 C   0  0  0  0  0  0  0  0  0  0  0  0
    2.9872   -1.0368   -3.3024 C   0  0  0  0  0  0  0  0  0  0  0  0
    4.1418   -2.0216   -3.3892 C   0  0  0  0  0  0  0  0  0  0  0  0
    4.8483   -2.0631   -2.1008 N   0  0  0  0  0  0  0  0  0  0  0  0
    4.3922   -1.2217   -0.9850 C   0  0  0  0  0  0  0  0  0  0  0  0
    3.1830   -0.4114   -1.4228 C   0  0  0  0  0  0  0  0  0  0  0  0
    6.0109   -2.9460   -1.9282 C   0  0  0  0  0  0  0  0  0  0  0  0
    5.8372   -4.2207   -1.4860 C   0  0  0  0  0  0  0  0  0  0  0  0
    4.4869   -4.7153   -1.1808 N   0  3  0  0  0  0  0  0  0  0  0  0
    4.2237   -5.9047   -1.3199 O   0  0  0  0  0  0  0  0  0  0  0  0
    3.5227   -3.8472   -0.7409 O   0  5  0  0  0  0  0  0  0  0  0  0
    7.0393   -5.1337   -1.3075 C   0  0  0  0  0  0  0  0  0  0  0  0
    8.0366   -5.8910   -1.1594 N   0  0  0  0  0  0  0  0  0  0  0  0
    7.3611   -2.4515   -2.2334 N   0  0  0  0  0  0  0  0  0  0  0  0
   -4.0590    0.4886    0.9272 C   0  0  0  0  0  0  0  0  0  0  0  0
   -4.9839    1.3744    0.4685 C   0  0  0  0  0  0  0  0  0  0  0  0
   -4.6515    2.2730   -0.6463 N   0  3  0  0  0  0  0  0  0  0  0  0
   -5.3045    2.2311   -1.6833 O   0  0  0  0  0  0  0  0  0  0  0  0
   -3.6120    3.1574   -0.5267 O   0  5  0  0  0  0  0  0  0  0  0  0
   -6.3612    1.4349    1.1087 C   0  0  0  0  0  0  0  0  0  0  0  0
   -7.5037    1.4852    1.6398 N   0  0  0  0  0  0  0  0  0  0  0  0
   -4.3914   -0.4101    2.0420 N   0  0  0  0  0  0  0  0  0  0  0  0
   -2.0534    0.1540   -1.7079 H   0  0  0  0  0  0  0  0  0  0  0  0
   -3.1687   -1.0699   -1.1607 H   0  0  0  0  0  0  0  0  0  0  0  0
   -1.7641    1.8389    1.5991 H   0  0  0  0  0  0  0  0  0  0  0  0
   -1.2038    1.8889   -0.0549 H   0  0  0  0  0  0  0  0  0  0  0  0
   -0.7668   -0.2742    1.8764 H   0  0  0  0  0  0  0  0  0  0  0  0
    0.3927    0.9758    1.3575 H   0  0  0  0  0  0  0  0  0  0  0  0
   -1.4579   -1.9957    0.3274 H   0  0  0  0  0  0  0  0  0  0  0  0
   -0.8444   -1.9359   -1.3055 H   0  0  0  0  0  0  0  0  0  0  0  0
    1.4569   -1.9967   -0.3255 H   0  0  0  0  0  0  0  0  0  0  0  0
    0.8433   -1.9353    1.3069 H   0  0  0  0  0  0  0  0  0  0  0  0
    3.1677   -1.0711    1.1562 H   0  0  0  0  0  0  0  0  0  0  0  0
    2.0556    0.1536    1.7100 H   0  0  0  0  0  0  0  0  0  0  0  0
    1.7649    1.8380   -1.6005 H   0  0  0  0  0  0  0  0  0  0  0  0
    1.2033    1.8896    0.0530 H   0  0  0  0  0  0  0  0  0  0  0  0
    0.7668   -0.2745   -1.8772 H   0  0  0  0  0  0  0  0  0  0  0  0
   -0.3927    0.9756   -1.3589 H   0  0  0  0  0  0  0  0  0  0  0  0
    3.1322   -0.2769   -4.0416 H   0  0  0  0  0  0  0  0  0  0  0  0
    2.0854   -1.5892   -3.4651 H   0  0  0  0  0  0  0  0  0  0  0  0
    4.8187   -1.7108   -4.1574 H   0  0  0  0  0  0  0  0  0  0  0  0
    3.7633   -2.9955   -3.6200 H   0  0  0  0  0  0  0  0  0  0  0  0
    5.1796   -0.5583   -0.6936 H   0  0  0  0  0  0  0  0  0  0  0  0
    4.1242   -1.8430   -0.1562 H   0  0  0  0  0  0  0  0  0  0  0  0
    2.3957   -1.0748   -1.7143 H   0  0  0  0  0  0  0  0  0  0  0  0
    3.4511    0.2099   -2.2516 H   0  0  0  0  0  0  0  0  0  0  0  0
    7.4868   -1.5289   -2.5534 H   0  0  0  0  0  0  0  0  0  0  0  0
    8.1397   -3.0428   -2.1178 H   0  0  0  0  0  0  0  0  0  0  0  0
   -3.7220   -1.0512    2.3739 H   0  0  0  0  0  0  0  0  0  0  0  0
   -5.2835   -0.3709    2.4567 H   0  0  0  0  0  0  0  0  0  0  0  0
  1  2  1  0  0  0  0
  1  6  1  0  0  0  0
  1 33  1  0  0  0  0
  1 34  1  0  0  0  0
  2  3  1  0  0  0  0
  2 25  1  0  0  0  0
  3  4  1  0  0  0  0
  3 35  1  0  0  0  0
  3 36  1  0  0  0  0
  4  5  1  0  0  0  0
  4 37  1  0  0  0  0
  4 38  1  0  0  0  0
  5  6  1  0  0  0  0
  5  7  1  0  0  0  0
  5 11  1  0  0  0  0
  6 39  1  0  0  0  0
  6 40  1  0  0  0  0
  7  8  1  0  0  0  0
  7 41  1  0  0  0  0
  7 42  1  0  0  0  0
  8  9  1  0  0  0  0
  8 43  1  0  0  0  0
  8 44  1  0  0  0  0
  9 10  1  0  0  0  0
  9 12  1  0  0  0  0
  9 16  1  0  0  0  0
 10 11  1  0  0  0  0
 10 45  1  0  0  0  0
 10 46  1  0  0  0  0
 11 47  1  0  0  0  0
 11 48  1  0  0  0  0
 12 13  1  0  0  0  0
 12 49  1  0  0  0  0
 12 50  1  0  0  0  0
 13 14  1  0  0  0  0
 13 51  1  0  0  0  0
 13 52  1  0  0  0  0
 14 15  1  0  0  0  0
 14 17  1  0  0  0  0
 15 16  1  0  0  0  0
 15 53  1  0  0  0  0
 15 54  1  0  0  0  0
 16 55  1  0  0  0  0
 16 56  1  0  0  0  0
 17 18  2  0  0  0  0
 17 24  1  0  0  0  0
 18 19  1  0  0  0  0
 18 22  1  0  0  0  0
 19 20  2  0  0  0  0
 19 21  1  0  0  0  0
 22 23  3  0  0  0  0
 24 57  1  0  0  0  0
 24 58  1  0  0  0  0
 25 26  2  0  0  0  0
 25 32  1  0  0  0  0
 26 27  1  0  0  0  0
 26 30  1  0  0  0  0
 27 28  2  0  0  0  0
 27 29  1  0  0  0  0
 30 31  3  0  0  0  0
 32 59  1  0  0  0  0
 32 60  1  0  0  0  0
M  CHG  6   5   1   9   1  19   1  21  -1  27   1  29  -1
M  END
