
 OpenBabel10072619563D

 27 28  0  0  0  0  0  0  0  0999 V2000
    5.2204   -2.1871   -1.0668 C   0  0  0  0  0  0  0  0  0  0  0  0
    4.4608   -1.1000   -0.4728 N   0  0  0  0  0  0  0  0  0  0  0  0
    3.1770   -1.3265    0.0066 C   0  0  0  0  0  0  0  0  0  0  0  0
    2.5990   -2.4108   -0.0345 O   0  0  0  0  0  0  0  0  0  0  0  0
    2.5439   -0.2510    0.5540 N   0  0  0  0  0  0  0  0  0  0  0  0
    3.0854    0.9930    0.6620 C   0  0  0  0  0  0  0  0  0  0  0  0
    2.4995    1.9441    1.1571 O   0  0  0  0  0  0  0  0  0  0  0  0
    4.4975    1.1251    0.1181 C   0  0  0  0  0  0  0  0  0  0  0  0
    5.1145    0.1107   -0.4112 N   0  0  0  0  0  0  0  0  0  0  0  0
    5.1230    2.4727    0.2269 C   0  0  0  0  0  0  0  0  0  0  0  0
    6.3778    2.6757   -0.1998 C   0  0  0  0  0  0  0  0  0  0  0  0
    6.9870    3.9562   -0.0986 C   0  0  0  0  0  0  0  0  0  0  0  0
    8.2766    4.3319   -0.4716 C   0  0  0  0  0  0  0  0  0  0  0  0
    8.4395    5.7104   -0.1848 C   0  0  0  0  0  0  0  0  0  0  0  0
    7.2403    6.1043    0.3484 C   0  0  0  0  0  0  0  0  0  0  0  0
    6.3587    5.0758    0.4101 O   0  0  0  0  0  0  0  0  0  0  0  0
    6.7832    7.3679    0.8319 N   0  3  0  0  0  0  0  0  0  0  0  0
    7.5994    8.2986    0.7837 O   0  0  0  0  0  0  0  0  0  0  0  0
    5.6235    7.4424    1.2569 O   0  5  0  0  0  0  0  0  0  0  0  0
    4.6261   -3.1005   -1.1511 H   0  0  0  0  0  0  0  0  0  0  0  0
    6.0936   -2.3853   -0.4384 H   0  0  0  0  0  0  0  0  0  0  0  0
    5.5498   -1.8828   -2.0647 H   0  0  0  0  0  0  0  0  0  0  0  0
    1.6110   -0.3970    0.9042 H   0  0  0  0  0  0  0  0  0  0  0  0
    4.5219    3.2650    0.6634 H   0  0  0  0  0  0  0  0  0  0  0  0
    6.9606    1.8661   -0.6318 H   0  0  0  0  0  0  0  0  0  0  0  0
    9.0169    3.6716   -0.9051 H   0  0  0  0  0  0  0  0  0  0  0  0
    9.3113    6.3298   -0.3454 H   0  0  0  0  0  0  0  0  0  0  0  0
  1  2  1  0  0  0  0
  1 20  1  0  0  0  0
  1 21  1  0  0  0  0
  1 22  1  0  0  0  0
  2  3  1  0  0  0  0
  2  9  1  0  0  0  0
  3  4  2  0  0  0  0
  3  5  1  0  0  0  0
  5  6  1  0  0  0  0
  5 23  1  0  0  0  0
  6  7  2  0  0  0  0
  6  8  1  0  0  0  0
  8  9  2  0  0  0  0
  8 10  1  0  0  0  0
 10 11  2  0  0  0  0
 10 24  1  0  0  0  0
 11 12  1  0  0  0  0
 11 25  1  0  0  0  0
 12 13  2  0  0  0  0
 12 16  1  0  0  0  0
 13 14  1  0  0  0  0
 13 26  1  0  0  0  0
 14 15  2  0  0  0  0
 14 27  1  0  0  0  0
 15 16  1  0  0  0  0
 15 17  1  0  0  0  0
 17 18  2  0  0  0  0
 17 19  1  0  0  0  0
M  CHG  2  17   1  19  -1
M  END
