
 OpenBabel10072619543D

 53 57  0  0  1  0  0  0  0  0999 V2000
    2.2440    0.9611   -1.3006 C   0  0  0  0  0  0  0  0  0  0  0  0
    3.1333    0.3370   -0.2044 C   0  0  0  0  0  0  0  0  0  0  0  0
    2.7551   -1.1193   -0.0390 C   0  0  0  0  0  0  0  0  0  0  0  0
    3.0093   -2.2001   -0.8809 C   0  0  0  0  0  0  0  0  0  0  0  0
    2.5712   -3.4712   -0.4958 C   0  0  0  0  0  0  0  0  0  0  0  0
    1.8792   -3.6473    0.7058 C   0  0  0  0  0  0  0  0  0  0  0  0
    1.6016   -2.5537    1.5265 C   0  0  0  0  0  0  0  0  0  0  0  0
    2.0596   -1.2942    1.1597 C   0  0  0  0  0  0  0  0  0  0  0  0
    1.8814   -0.1003    1.8992 N   0  0  0  0  0  0  0  0  0  0  0  0
    2.7904    0.8796    1.2419 C   0  0  3  0  0  0  0  0  0  0  0  0
    3.8959    0.9363    2.1713 N   0  0  0  0  0  0  0  0  0  0  0  0
    3.5773    0.4639    3.4247 C   0  0  0  0  0  0  0  0  0  0  0  0
    4.2646    0.6106    4.4214 O   0  0  0  0  0  0  0  0  0  0  0  0
    2.2360   -0.2252    3.3292 C   0  0  0  0  0  0  0  0  0  0  0  0
    2.2155    2.2712    1.2978 C   0  0  0  0  0  0  0  0  0  0  0  0
    0.9653    2.6038    1.6698 C   0  0  0  0  0  0  0  0  0  0  0  0
    0.6273    3.9718    2.0544 C   0  0  0  0  0  0  0  0  0  0  0  0
    1.4620    4.6710    2.9389 C   0  0  0  0  0  0  0  0  0  0  0  0
    1.0523    5.8891    3.4737 C   0  0  0  0  0  0  0  0  0  0  0  0
   -0.1887    6.4486    3.1288 C   0  0  0  0  0  0  0  0  0  0  0  0
   -1.0066    5.7514    2.2157 C   0  0  0  0  0  0  0  0  0  0  0  0
   -0.6023    4.5190    1.6859 C   0  0  0  0  0  0  0  0  0  0  0  0
   -0.6014    7.7198    3.7465 C   0  0  0  0  0  0  0  0  0  0  0  0
    0.2319    8.8517    3.6909 C   0  0  0  0  0  0  0  0  0  0  0  0
   -0.1285   10.0536    4.3051 C   0  0  0  0  0  0  0  0  0  0  0  0
   -1.3416   10.1463    4.9779 C   0  0  0  0  0  0  0  0  0  0  0  0
   -2.1754    9.0327    5.0609 C   0  0  0  0  0  0  0  0  0  0  0  0
   -1.8059    7.8290    4.4537 C   0  0  0  0  0  0  0  0  0  0  0  0
    4.6148    0.5148   -0.5624 C   0  0  0  0  0  0  0  0  0  0  0  0
    1.1840    0.9261   -1.0217 H   0  0  0  0  0  0  0  0  0  0  0  0
    2.3344    0.4250   -2.2531 H   0  0  0  0  0  0  0  0  0  0  0  0
    2.5112    2.0099   -1.4816 H   0  0  0  0  0  0  0  0  0  0  0  0
    3.5365   -2.0723   -1.8204 H   0  0  0  0  0  0  0  0  0  0  0  0
    2.7626   -4.3374   -1.1266 H   0  0  0  0  0  0  0  0  0  0  0  0
    1.5655   -4.6412    1.0139 H   0  0  0  0  0  0  0  0  0  0  0  0
    1.0399   -2.7044    2.4418 H   0  0  0  0  0  0  0  0  0  0  0  0
    4.6674    1.5828    2.0940 H   0  0  0  0  0  0  0  0  0  0  0  0
    1.5091    0.3222    3.9382 H   0  0  0  0  0  0  0  0  0  0  0  0
    2.3352   -1.2537    3.6904 H   0  0  0  0  0  0  0  0  0  0  0  0
    2.9338    3.0644    1.1020 H   0  0  0  0  0  0  0  0  0  0  0  0
    0.1993    1.8496    1.8374 H   0  0  0  0  0  0  0  0  0  0  0  0
    2.4150    4.2542    3.2626 H   0  0  0  0  0  0  0  0  0  0  0  0
    1.6970    6.3845    4.1988 H   0  0  0  0  0  0  0  0  0  0  0  0
   -1.9723    6.1531    1.9114 H   0  0  0  0  0  0  0  0  0  0  0  0
   -1.2554    3.9812    1.0002 H   0  0  0  0  0  0  0  0  0  0  0  0
    1.1769    8.8020    3.1560 H   0  0  0  0  0  0  0  0  0  0  0  0
    0.5437   10.9076    4.2636 H   0  0  0  0  0  0  0  0  0  0  0  0
   -1.6271   11.0785    5.4571 H   0  0  0  0  0  0  0  0  0  0  0  0
   -3.1085    9.0917    5.6137 H   0  0  0  0  0  0  0  0  0  0  0  0
   -2.4621    6.9680    4.5543 H   0  0  0  0  0  0  0  0  0  0  0  0
    4.8392    0.1182   -1.5577 H   0  0  0  0  0  0  0  0  0  0  0  0
    5.2663   -0.0274    0.1334 H   0  0  0  0  0  0  0  0  0  0  0  0
    4.8986    1.5741   -0.5508 H   0  0  0  0  0  0  0  0  0  0  0  0
  1  2  1  0  0  0  0
  1 30  1  0  0  0  0
  1 31  1  0  0  0  0
  1 32  1  0  0  0  0
  2  3  1  0  0  0  0
  2 10  1  0  0  0  0
  2 29  1  0  0  0  0
  3  4  2  0  0  0  0
  3  8  1  0  0  0  0
  4  5  1  0  0  0  0
  4 33  1  0  0  0  0
  5  6  2  0  0  0  0
  5 34  1  0  0  0  0
  6  7  1  0  0  0  0
  6 35  1  0  0  0  0
  7  8  2  0  0  0  0
  7 36  1  0  0  0  0
  8  9  1  0  0  0  0
  9 10  1  0  0  0  0
  9 14  1  0  0  0  0
 10 11  1  0  0  0  0
 10 15  1  0  0  0  0
 11 12  1  0  0  0  0
 11 37  1  0  0  0  0
 12 13  2  0  0  0  0
 12 14  1  0  0  0  0
 14 38  1  0  0  0  0
 14 39  1  0  0  0  0
 15 16  2  0  0  0  0
 15 40  1  0  0  0  0
 16 17  1  0  0  0  0
 16 41  1  0  0  0  0
 17 18  2  0  0  0  0
 17 22  1  0  0  0  0
 18 19  1  0  0  0  0
 18 42  1  0  0  0  0
 19 20  2  0  0  0  0
 19 43  1  0  0  0  0
 20 21  1  0  0  0  0
 20 23  1  0  0  0  0
 21 22  2  0  0  0  0
 21 44  1  0  0  0  0
 22 45  1  0  0  0  0
 23 24  2  0  0  0  0
 23 28  1  0  0  0  0
 24 25  1  0  0  0  0
 24 46  1  0  0  0  0
 25 26  2  0  0  0  0
 25 47  1  0  0  0  0
 26 27  1  0  0  0  0
 26 48  1  0  0  0  0
 27 28  2  0  0  0  0
 27 49  1  0  0  0  0
 28 50  1  0  0  0  0
 29 51  1  0  0  0  0
 29 52  1  0  0  0  0
 29 53  1  0  0  0  0
M  END
