
 OpenBabel10072619503D

 32 34  0  0  0  0  0  0  0  0999 V2000
    3.5137   -0.6062    0.0021 C   0  0  0  0  0  0  0  0  0  0  0  0
    2.7095   -1.7397    0.0005 C   0  0  0  0  0  0  0  0  0  0  0  0
    1.3199   -1.6074   -0.0003 C   0  0  0  0  0  0  0  0  0  0  0  0
    0.7044   -0.3371    0.0004 C   0  0  0  0  0  0  0  0  0  0  0  0
    1.5343    0.8121    0.0020 C   0  0  0  0  0  0  0  0  0  0  0  0
    2.9303    0.6608    0.0029 C   0  0  0  0  0  0  0  0  0  0  0  0
    0.9546    2.0913    0.0027 C   0  0  0  0  0  0  0  0  0  0  0  0
   -0.4311    2.2485    0.0015 C   0  0  0  0  0  0  0  0  0  0  0  0
   -1.2528    1.1211   -0.0002 C   0  0  0  0  0  0  0  0  0  0  0  0
   -0.6985   -0.1611   -0.0007 C   0  0  0  0  0  0  0  0  0  0  0  0
   -1.4903   -1.2905   -0.0022 O   0  0  0  0  0  0  0  0  0  0  0  0
   -2.8545   -1.1298   -0.0045 C   0  0  0  0  0  0  0  0  0  0  0  0
   -3.5130    0.0346   -0.0048 C   0  0  0  0  0  0  0  0  0  0  0  0
   -2.7188    1.2767   -0.0020 C   0  0  0  0  0  0  0  0  0  0  0  0
   -3.2509    2.3802   -0.0014 O   0  0  0  0  0  0  0  0  0  0  0  0
   -4.9929    0.0611   -0.0078 C   0  0  0  0  0  0  0  0  0  0  0  0
   -5.7334   -1.0028   -0.0134 N   0  0  0  0  0  0  0  0  0  0  0  0
   -7.0799   -0.7593   -0.0159 N   0  0  0  0  0  0  0  0  0  0  0  0
   -7.9882   -1.7811   -0.0232 C   0  0  0  0  0  0  0  0  0  0  0  0
   -9.6242   -1.5118   -0.0273 S   0  0  0  0  0  0  0  0  0  0  0  0
   -7.4665   -3.0293   -0.0270 N   0  0  0  0  0  0  0  0  0  0  0  0
    4.5962   -0.7064    0.0027 H   0  0  0  0  0  0  0  0  0  0  0  0
    3.1610   -2.7287   -0.0001 H   0  0  0  0  0  0  0  0  0  0  0  0
    0.7144   -2.5120   -0.0016 H   0  0  0  0  0  0  0  0  0  0  0  0
    3.5796    1.5341    0.0042 H   0  0  0  0  0  0  0  0  0  0  0  0
    1.5827    2.9806    0.0039 H   0  0  0  0  0  0  0  0  0  0  0  0
   -0.8621    3.2476    0.0018 H   0  0  0  0  0  0  0  0  0  0  0  0
   -3.3388   -2.0991   -0.0061 H   0  0  0  0  0  0  0  0  0  0  0  0
   -5.4385    1.0730   -0.0052 H   0  0  0  0  0  0  0  0  0  0  0  0
   -7.4362    0.1926   -0.0131 H   0  0  0  0  0  0  0  0  0  0  0  0
   -6.4580   -3.1106   -0.0250 H   0  0  0  0  0  0  0  0  0  0  0  0
   -8.0548   -3.8492   -0.0332 H   0  0  0  0  0  0  0  0  0  0  0  0
  1  2  2  0  0  0  0
  1  6  1  0  0  0  0
  1 22  1  0  0  0  0
  2  3  1  0  0  0  0
  2 23  1  0  0  0  0
  3  4  2  0  0  0  0
  3 24  1  0  0  0  0
  4  5  1  0  0  0  0
  4 10  1  0  0  0  0
  5  6  2  0  0  0  0
  5  7  1  0  0  0  0
  6 25  1  0  0  0  0
  7  8  2  0  0  0  0
  7 26  1  0  0  0  0
  8  9  1  0  0  0  0
  8 27  1  0  0  0  0
  9 10  2  0  0  0  0
  9 14  1  0  0  0  0
 10 11  1  0  0  0  0
 11 12  1  0  0  0  0
 12 13  2  0  0  0  0
 12 28  1  0  0  0  0
 13 14  1  0  0  0  0
 13 16  1  0  0  0  0
 14 15  2  0  0  0  0
 16 17  2  0  0  0  0
 16 29  1  0  0  0  0
 17 18  1  0  0  0  0
 18 19  1  0  0  0  0
 18 30  1  0  0  0  0
 19 20  2  0  0  0  0
 19 21  1  0  0  0  0
 21 31  1  0  0  0  0
 21 32  1  0  0  0  0
M  END
