
 OpenBabel10072619513D

218226  0  0  1  0  0  0  0  0999 V2000
    9.1142   -2.3649   -1.6064 C   0  0  0  0  0  0  0  0  0  0  0  0
    9.2809   -3.5902   -0.7276 C   0  0  3  0  0  0  0  0  0  0  0  0
    8.5598   -3.3874    0.6221 C   0  0  0  0  0  0  0  0  0  0  0  0
    7.2524   -2.8140    0.5230 O   0  0  0  0  0  0  0  0  0  0  0  0
    6.2815   -3.7367    0.0093 C   0  0  0  0  0  0  0  0  0  0  0  0
    4.8838   -3.1691    0.2773 C   0  0  3  0  0  0  0  0  0  0  0  0
    3.7430   -4.0385   -0.2536 C   0  0  2  0  0  0  0  0  0  0  0  0
    3.6853   -4.0047   -1.7897 C   0  0  1  0  0  0  0  0  0  0  0  0
    3.6627   -2.5604   -2.3130 C   0  0  3  0  0  0  0  0  0  0  0  0
    4.7201   -1.6731   -1.6063 C   0  0  2  0  0  0  0  0  0  0  0  0
    4.7255   -1.8354   -0.1950 O   0  0  0  0  0  0  0  0  0  0  0  0
    4.4445   -0.2888   -1.7408 O   0  0  0  0  0  0  0  0  0  0  0  0
    4.4298    0.2811   -3.0440 C   0  0  1  0  0  0  0  0  0  0  0  0
    2.9856    0.7477   -3.2796 C   0  0  1  0  0  0  0  0  0  0  0  0
    2.7571    2.2293   -2.9511 C   0  0  3  0  0  0  0  0  0  0  0  0
    3.6973    2.6998   -1.8301 C   0  0  1  0  0  0  0  0  0  0  0  0
    3.1698    2.0575   -0.6768 O   0  0  0  0  0  0  0  0  0  0  0  0
    3.4103    2.5184    0.6504 C   0  0  1  0  0  0  0  0  0  0  0  0
    3.5659    4.0281    0.8011 C   0  0  1  0  0  0  0  0  0  0  0  0
    2.2761    4.7768    0.4517 C   0  0  3  0  0  0  0  0  0  0  0  0
    1.0491    4.2189    1.2299 C   0  0  1  0  0  0  0  0  0  0  0  0
   -0.2242    4.6597    0.7100 O   0  0  0  0  0  0  0  0  0  0  0  0
   -0.4369    6.0655    0.5105 C   0  0  1  0  0  0  0  0  0  0  0  0
   -0.9688    6.2164   -0.9198 C   0  0  1  0  0  0  0  0  0  0  0  0
   -2.4663    6.5220   -0.9948 C   0  0  3  0  0  0  0  0  0  0  0  0
   -3.2376    5.9485    0.2110 C   0  0  1  0  0  0  0  0  0  0  0  0
   -3.2219    4.5375    0.3626 O   0  0  0  0  0  0  0  0  0  0  0  0
   -3.4464    3.7306   -0.7927 C   0  0  1  0  0  0  0  0  0  0  0  0
   -2.7513    2.4076   -0.4551 C   0  0  1  0  0  0  0  0  0  0  0  0
   -3.6403    1.4779    0.3603 C   0  0  3  0  0  0  0  0  0  0  0  0
   -4.9526    1.3414   -0.4188 C   0  0  1  0  0  0  0  0  0  0  0  0
   -5.7707    0.3175    0.1148 O   0  0  0  0  0  0  0  0  0  0  0  0
   -5.6534   -1.0202   -0.4161 C   0  0  1  0  0  0  0  0  0  0  0  0
   -4.7325   -1.2980   -1.6424 C   0  0  1  0  0  0  0  0  0  0  0  0
   -3.5246   -2.1967   -1.4032 C   0  0  3  0  0  0  0  0  0  0  0  0
   -3.9456   -3.3338   -0.4833 C   0  0  1  0  0  0  0  0  0  0  0  0
   -2.8341   -4.1860   -0.2646 O   0  0  0  0  0  0  0  0  0  0  0  0
   -2.7438   -5.2950   -1.1666 C   0  0  1  0  0  0  0  0  0  0  0  0
   -1.3405   -5.2412   -1.7811 C   0  0  1  0  0  0  0  0  0  0  0  0
   -0.2664   -5.3509   -0.6915 C   0  0  3  0  0  0  0  0  0  0  0  0
   -0.7326   -6.2075    0.5095 C   0  0  1  0  0  0  0  0  0  0  0  0
   -1.2849   -5.4849    1.6033 O   0  0  0  0  0  0  0  0  0  0  0  0
   -0.4628   -4.8021    2.5548 C   0  0  1  0  0  0  0  0  0  0  0  0
    0.8672   -5.4683    2.8794 C   0  0  1  0  0  0  0  0  0  0  0  0
    1.9735   -5.1093    1.8937 C   0  0  3  0  0  0  0  0  0  0  0  0
    2.0068   -3.6242    1.4704 C   0  0  1  0  0  0  0  0  0  0  0  0
    2.4844   -3.4945    0.1338 O   0  0  0  0  0  0  0  0  0  0  0  0
    0.7344   -2.9975    1.3421 O   0  0  0  0  0  0  0  0  0  0  0  0
   -0.3052   -3.2998    2.2610 C   0  0  3  0  0  0  0  0  0  0  0  0
   -0.0976   -2.4308    3.5106 C   0  0  0  0  0  0  0  0  0  0  0  0
   -0.1239   -1.0420    3.1595 O   0  0  0  0  0  0  0  0  0  0  0  0
    3.2249   -5.4861    2.5013 O   0  0  0  0  0  0  0  0  0  0  0  0
    1.3071   -5.0709    4.1900 O   0  0  0  0  0  0  0  0  0  0  0  0
   -1.6942   -7.1773    0.0645 O   0  0  0  0  0  0  0  0  0  0  0  0
   -2.9468   -6.5779   -0.3226 C   0  0  3  0  0  0  0  0  0  0  0  0
   -3.7113   -7.6672   -1.0837 C   0  0  0  0  0  0  0  0  0  0  0  0
   -3.0628   -7.9752   -2.3176 O   0  0  0  0  0  0  0  0  0  0  0  0
    0.9157   -5.9311   -1.2900 O   0  0  0  0  0  0  0  0  0  0  0  0
   -1.1054   -6.2715   -2.7613 O   0  0  0  0  0  0  0  0  0  0  0  0
   -4.2872   -2.7724    0.7736 O   0  0  0  0  0  0  0  0  0  0  0  0
   -5.4890   -1.9950    0.7863 C   0  0  3  0  0  0  0  0  0  0  0  0
   -6.7064   -2.9373    0.9560 C   0  0  0  0  0  0  0  0  0  0  0  0
   -6.5554   -3.6697    2.1792 O   0  0  0  0  0  0  0  0  0  0  0  0
   -7.6019   -4.6243    2.3822 C   0  0  0  0  0  0  0  0  0  0  0  0
   -7.3529   -5.3279    3.7226 C   0  0  3  0  0  0  0  0  0  0  0  0
   -6.0451   -6.1118    3.7567 C   0  0  0  0  0  0  0  0  0  0  0  0
   -7.3202   -4.3453    4.7628 O   0  0  0  0  0  0  0  0  0  0  0  0
   -3.0358   -2.6569   -2.6799 O   0  0  0  0  0  0  0  0  0  0  0  0
   -5.5300   -1.9704   -2.6597 O   0  0  0  0  0  0  0  0  0  0  0  0
   -5.6329    2.5950   -0.3445 O   0  0  0  0  0  0  0  0  0  0  0  0
   -4.9623    3.6211   -1.1031 C   0  0  3  0  0  0  0  0  0  0  0  0
   -5.2323    3.4938   -2.6232 C   0  0  0  0  0  0  0  0  0  0  0  0
   -6.6317    3.4708   -2.9256 O   0  0  0  0  0  0  0  0  0  0  0  0
   -7.2311    4.7704   -2.8182 C   0  0  0  0  0  0  0  0  0  0  0  0
   -8.7041    4.6210   -3.1879 C   0  0  3  0  0  0  0  0  0  0  0  0
   -9.4218    5.9468   -2.9963 C   0  0  0  0  0  0  0  0  0  0  0  0
   -8.7984    4.1988   -4.5537 O   0  0  0  0  0  0  0  0  0  0  0  0
   -2.9516    0.2322    0.5106 O   0  0  0  0  0  0  0  0  0  0  0  0
   -2.3625    1.7290   -1.6619 O   0  0  0  0  0  0  0  0  0  0  0  0
   -2.7679    6.4813    1.4484 O   0  0  0  0  0  0  0  0  0  0  0  0
   -1.3554    6.6747    1.5917 C   0  0  3  0  0  0  0  0  0  0  0  0
   -1.1483    8.1970    1.7408 C   0  0  0  0  0  0  0  0  0  0  0  0
    0.2141    8.5695    1.9088 O   0  0  0  0  0  0  0  0  0  0  0  0
   -2.6707    7.9389   -1.1184 O   0  0  0  0  0  0  0  0  0  0  0  0
   -0.2663    7.2629   -1.6239 O   0  0  0  0  0  0  0  0  0  0  0  0
    0.9790    2.7917    1.1177 O   0  0  0  0  0  0  0  0  0  0  0  0
    2.1577    2.0337    1.4362 C   0  0  3  0  0  0  0  0  0  0  0  0
    2.3438    1.8508    2.9451 C   0  0  0  0  0  0  0  0  0  0  0  0
    3.4427    0.9657    3.1599 O   0  0  0  0  0  0  0  0  0  0  0  0
    3.5549    0.5631    4.5264 C   0  0  0  0  0  0  0  0  0  0  0  0
    4.8068   -0.3148    4.6458 C   0  0  3  0  0  0  0  0  0  0  0  0
    5.0735   -0.6797    6.0941 C   0  0  0  0  0  0  0  0  0  0  0  0
    4.6349   -1.5173    3.8852 O   0  0  0  0  0  0  0  0  0  0  0  0
    2.5510    6.1621    0.7386 O   0  0  0  0  0  0  0  0  0  0  0  0
    3.9310    4.3886    2.1496 O   0  0  0  0  0  0  0  0  0  0  0  0
    5.0861    2.4590   -2.0428 O   0  0  0  0  0  0  0  0  0  0  0  0
    5.4403    1.4350   -2.9939 C   0  0  3  0  0  0  0  0  0  0  0  0
    5.7266    1.9819   -4.4099 C   0  0  0  0  0  0  0  0  0  0  0  0
    6.9515    2.7310   -4.4521 O   0  0  0  0  0  0  0  0  0  0  0  0
    7.2332    3.1354   -5.8027 C   0  0  0  0  0  0  0  0  0  0  0  0
    8.5468    3.9171   -5.8575 C   0  0  3  0  0  0  0  0  0  0  0  0
    8.4540    5.1834   -5.0265 C   0  0  0  0  0  0  0  0  0  0  0  0
    9.6307    3.1247   -5.3666 O   0  0  0  0  0  0  0  0  0  0  0  0
    2.8397    3.0433   -4.1242 O   0  0  0  0  0  0  0  0  0  0  0  0
    2.5530    0.4930   -4.6260 O   0  0  0  0  0  0  0  0  0  0  0  0
    3.8553   -2.5939   -3.7463 O   0  0  0  0  0  0  0  0  0  0  0  0
    4.7595   -4.7251   -2.4104 O   0  0  0  0  0  0  0  0  0  0  0  0
    8.7817   -4.7341   -1.4229 O   0  0  0  0  0  0  0  0  0  0  0  0
    9.6755   -2.4601   -2.5422 H   0  0  0  0  0  0  0  0  0  0  0  0
    8.0619   -2.2390   -1.8826 H   0  0  0  0  0  0  0  0  0  0  0  0
    9.4490   -1.4815   -1.0582 H   0  0  0  0  0  0  0  0  0  0  0  0
   10.3426   -3.7897   -0.5357 H   0  0  0  0  0  0  0  0  0  0  0  0
    8.4652   -4.3343    1.1627 H   0  0  0  0  0  0  0  0  0  0  0  0
    9.1594   -2.7018    1.2308 H   0  0  0  0  0  0  0  0  0  0  0  0
    6.4804   -3.8837   -1.0533 H   0  0  0  0  0  0  0  0  0  0  0  0
    6.3602   -4.7121    0.5061 H   0  0  0  0  0  0  0  0  0  0  0  0
    4.7849   -3.0686    1.3621 H   0  0  0  0  0  0  0  0  0  0  0  0
    3.8601   -5.0722    0.0816 H   0  0  0  0  0  0  0  0  0  0  0  0
    2.7688   -4.4851   -2.1470 H   0  0  0  0  0  0  0  0  0  0  0  0
    2.6684   -2.1312   -2.1460 H   0  0  0  0  0  0  0  0  0  0  0  0
    5.7236   -1.8639   -1.9977 H   0  0  0  0  0  0  0  0  0  0  0  0
    4.7615   -0.4357   -3.8013 H   0  0  0  0  0  0  0  0  0  0  0  0
    2.3213    0.1676   -2.6250 H   0  0  0  0  0  0  0  0  0  0  0  0
    1.7205    2.3361   -2.6046 H   0  0  0  0  0  0  0  0  0  0  0  0
    3.5962    3.7828   -1.7527 H   0  0  0  0  0  0  0  0  0  0  0  0
    4.3123    2.0165    1.0255 H   0  0  0  0  0  0  0  0  0  0  0  0
    4.3778    4.4149    0.1745 H   0  0  0  0  0  0  0  0  0  0  0  0
    2.0523    4.7180   -0.6180 H   0  0  0  0  0  0  0  0  0  0  0  0
    1.0880    4.5030    2.2860 H   0  0  0  0  0  0  0  0  0  0  0  0
    0.5077    6.5826    0.5669 H   0  0  0  0  0  0  0  0  0  0  0  0
   -0.7739    5.2922   -1.4806 H   0  0  0  0  0  0  0  0  0  0  0  0
   -2.8542    6.1187   -1.9343 H   0  0  0  0  0  0  0  0  0  0  0  0
   -4.2820    6.2749    0.1409 H   0  0  0  0  0  0  0  0  0  0  0  0
   -2.9274    4.1502   -1.6554 H   0  0  0  0  0  0  0  0  0  0  0  0
   -1.8250    2.5955    0.0995 H   0  0  0  0  0  0  0  0  0  0  0  0
   -3.8454    1.8861    1.3576 H   0  0  0  0  0  0  0  0  0  0  0  0
   -4.7992    1.1635   -1.4740 H   0  0  0  0  0  0  0  0  0  0  0  0
   -6.6762   -1.1690   -0.7842 H   0  0  0  0  0  0  0  0  0  0  0  0
   -4.3541   -0.4246   -2.1656 H   0  0  0  0  0  0  0  0  0  0  0  0
   -2.6986   -1.6482   -0.9402 H   0  0  0  0  0  0  0  0  0  0  0  0
   -4.7860   -3.9129   -0.8834 H   0  0  0  0  0  0  0  0  0  0  0  0
   -3.4995   -5.2333   -1.9598 H   0  0  0  0  0  0  0  0  0  0  0  0
   -1.1795   -4.2881   -2.2956 H   0  0  0  0  0  0  0  0  0  0  0  0
   -0.0033   -4.3496   -0.3635 H   0  0  0  0  0  0  0  0  0  0  0  0
    0.0889   -6.8291    0.8658 H   0  0  0  0  0  0  0  0  0  0  0  0
   -1.0734   -4.8503    3.4648 H   0  0  0  0  0  0  0  0  0  0  0  0
    0.7629   -6.5591    2.9137 H   0  0  0  0  0  0  0  0  0  0  0  0
    1.8845   -5.7243    0.9981 H   0  0  0  0  0  0  0  0  0  0  0  0
    2.6391   -3.0315    2.1415 H   0  0  0  0  0  0  0  0  0  0  0  0
   -1.2207   -2.9514    1.7688 H   0  0  0  0  0  0  0  0  0  0  0  0
    0.8681   -2.6249    3.9829 H   0  0  0  0  0  0  0  0  0  0  0  0
   -0.8841   -2.6030    4.2503 H   0  0  0  0  0  0  0  0  0  0  0  0
    0.4206   -0.9609    2.3456 H   0  0  0  0  0  0  0  0  0  0  0  0
    3.1751   -5.1122    3.4096 H   0  0  0  0  0  0  0  0  0  0  0  0
    0.6283   -5.3751    4.8208 H   0  0  0  0  0  0  0  0  0  0  0  0
   -3.5033   -6.3470    0.5971 H   0  0  0  0  0  0  0  0  0  0  0  0
   -3.7558   -8.5917   -0.4969 H   0  0  0  0  0  0  0  0  0  0  0  0
   -4.7339   -7.3548   -1.3054 H   0  0  0  0  0  0  0  0  0  0  0  0
   -2.1376   -8.1811   -2.0705 H   0  0  0  0  0  0  0  0  0  0  0  0
    0.5735   -6.4039   -2.0806 H   0  0  0  0  0  0  0  0  0  0  0  0
   -1.9446   -6.4093   -3.2464 H   0  0  0  0  0  0  0  0  0  0  0  0
   -5.4126   -1.4020    1.7083 H   0  0  0  0  0  0  0  0  0  0  0  0
   -7.6400   -2.3615    0.9938 H   0  0  0  0  0  0  0  0  0  0  0  0
   -6.7610   -3.6602    0.1342 H   0  0  0  0  0  0  0  0  0  0  0  0
   -8.5494   -4.0747    2.4261 H   0  0  0  0  0  0  0  0  0  0  0  0
   -7.6292   -5.3519    1.5603 H   0  0  0  0  0  0  0  0  0  0  0  0
   -8.1837   -6.0069    3.9326 H   0  0  0  0  0  0  0  0  0  0  0  0
   -6.0397   -6.9083    3.0061 H   0  0  0  0  0  0  0  0  0  0  0  0
   -5.8935   -6.5696    4.7419 H   0  0  0  0  0  0  0  0  0  0  0  0
   -5.1857   -5.4571    3.5806 H   0  0  0  0  0  0  0  0  0  0  0  0
   -6.7496   -3.6242    4.4269 H   0  0  0  0  0  0  0  0  0  0  0  0
   -3.8141   -2.6444   -3.2740 H   0  0  0  0  0  0  0  0  0  0  0  0
   -6.1547   -1.3020   -3.0031 H   0  0  0  0  0  0  0  0  0  0  0  0
   -5.4443    4.5401   -0.7649 H   0  0  0  0  0  0  0  0  0  0  0  0
   -4.7630    4.3232   -3.1704 H   0  0  0  0  0  0  0  0  0  0  0  0
   -4.8082    2.5717   -3.0289 H   0  0  0  0  0  0  0  0  0  0  0  0
   -7.1344    5.1518   -1.7943 H   0  0  0  0  0  0  0  0  0  0  0  0
   -6.7414    5.4742   -3.5093 H   0  0  0  0  0  0  0  0  0  0  0  0
   -9.1787    3.8394   -2.5793 H   0  0  0  0  0  0  0  0  0  0  0  0
  -10.4672    5.7671   -2.7301 H   0  0  0  0  0  0  0  0  0  0  0  0
   -9.4100    6.5668   -3.8987 H   0  0  0  0  0  0  0  0  0  0  0  0
   -8.9812    6.5193   -2.1723 H   0  0  0  0  0  0  0  0  0  0  0  0
   -8.2078    3.4212   -4.6261 H   0  0  0  0  0  0  0  0  0  0  0  0
   -2.4661    0.2840    1.3586 H   0  0  0  0  0  0  0  0  0  0  0  0
   -1.9191    0.9123   -1.3430 H   0  0  0  0  0  0  0  0  0  0  0  0
   -1.0805    6.2095    2.5476 H   0  0  0  0  0  0  0  0  0  0  0  0
   -1.5631    8.7445    0.8905 H   0  0  0  0  0  0  0  0  0  0  0  0
   -1.6995    8.5471    2.6207 H   0  0  0  0  0  0  0  0  0  0  0  0
    0.5363    8.9011    1.0500 H   0  0  0  0  0  0  0  0  0  0  0  0
   -1.8857    8.2514   -1.6184 H   0  0  0  0  0  0  0  0  0  0  0  0
    0.6733    6.9953   -1.6639 H   0  0  0  0  0  0  0  0  0  0  0  0
    1.9309    1.0267    1.0573 H   0  0  0  0  0  0  0  0  0  0  0  0
    2.5071    2.8061    3.4550 H   0  0  0  0  0  0  0  0  0  0  0  0
    1.4398    1.4154    3.3842 H   0  0  0  0  0  0  0  0  0  0  0  0
    2.6597   -0.0101    4.7930 H   0  0  0  0  0  0  0  0  0  0  0  0
    3.6323    1.4500    5.1710 H   0  0  0  0  0  0  0  0  0  0  0  0
    5.6786    0.2020    4.2306 H   0  0  0  0  0  0  0  0  0  0  0  0
    5.2423    0.2182    6.6972 H   0  0  0  0  0  0  0  0  0  0  0  0
    5.9534   -1.3253    6.1773 H   0  0  0  0  0  0  0  0  0  0  0  0
    4.2284   -1.2323    6.5156 H   0  0  0  0  0  0  0  0  0  0  0  0
    4.5080   -1.2238    2.9596 H   0  0  0  0  0  0  0  0  0  0  0  0
    2.9875    6.1571    1.6174 H   0  0  0  0  0  0  0  0  0  0  0  0
    4.7688    3.9254    2.3481 H   0  0  0  0  0  0  0  0  0  0  0  0
    6.3817    1.0218   -2.6033 H   0  0  0  0  0  0  0  0  0  0  0  0
    5.8430    1.1386   -5.1006 H   0  0  0  0  0  0  0  0  0  0  0  0
    4.9290    2.6296   -4.7771 H   0  0  0  0  0  0  0  0  0  0  0  0
    7.3279    2.2405   -6.4235 H   0  0  0  0  0  0  0  0  0  0  0  0
    6.4106    3.7538   -6.1916 H   0  0  0  0  0  0  0  0  0  0  0  0
    8.7668    4.1615   -6.9015 H   0  0  0  0  0  0  0  0  0  0  0  0
    9.3286    5.8167   -5.2004 H   0  0  0  0  0  0  0  0  0  0  0  0
    7.5522    5.7529   -5.2721 H   0  0  0  0  0  0  0  0  0  0  0  0
    8.4399    4.9418   -3.9590 H   0  0  0  0  0  0  0  0  0  0  0  0
    9.3830    2.8699   -4.4565 H   0  0  0  0  0  0  0  0  0  0  0  0
    2.4398    2.4850   -4.8241 H   0  0  0  0  0  0  0  0  0  0  0  0
    2.4722   -0.4815   -4.6963 H   0  0  0  0  0  0  0  0  0  0  0  0
    4.4360   -3.3716   -3.8961 H   0  0  0  0  0  0  0  0  0  0  0  0
    4.6360   -5.6642   -2.1707 H   0  0  0  0  0  0  0  0  0  0  0  0
    9.2132   -4.7580   -2.2961 H   0  0  0  0  0  0  0  0  0  0  0  0
  1  2  1  0  0  0  0
  1109  1  0  0  0  0
  1110  1  0  0  0  0
  1111  1  0  0  0  0
  2  3  1  0  0  0  0
  2108  1  0  0  0  0
  2112  1  0  0  0  0
  3  4  1  0  0  0  0
  3113  1  0  0  0  0
  3114  1  0  0  0  0
  4  5  1  0  0  0  0
  5  6  1  0  0  0  0
  5115  1  0  0  0  0
  5116  1  0  0  0  0
  6  7  1  0  0  0  0
  6 11  1  0  0  0  0
  6117  1  0  0  0  0
  7  8  1  0  0  0  0
  7 47  1  0  0  0  0
  7118  1  1  0  0  0
  8  9  1  0  0  0  0
  8107  1  0  0  0  0
  8119  1  6  0  0  0
  9 10  1  0  0  0  0
  9106  1  0  0  0  0
  9120  1  0  0  0  0
 10 11  1  0  0  0  0
 10 12  1  0  0  0  0
 10121  1  6  0  0  0
 12 13  1  0  0  0  0
 13 14  1  0  0  0  0
 13 97  1  0  0  0  0
 13122  1  6  0  0  0
 14 15  1  0  0  0  0
 14105  1  0  0  0  0
 14123  1  1  0  0  0
 15 16  1  0  0  0  0
 15104  1  0  0  0  0
 15124  1  0  0  0  0
 16 17  1  0  0  0  0
 16 96  1  0  0  0  0
 16125  1  1  0  0  0
 17 18  1  0  0  0  0
 18 19  1  0  0  0  0
 18 87  1  0  0  0  0
 18126  1  1  0  0  0
 19 20  1  0  0  0  0
 19 95  1  0  0  0  0
 19127  1  6  0  0  0
 20 21  1  0  0  0  0
 20 94  1  0  0  0  0
 20128  1  0  0  0  0
 21 22  1  0  0  0  0
 21 86  1  0  0  0  0
 21129  1  1  0  0  0
 22 23  1  0  0  0  0
 23 24  1  0  0  0  0
 23 81  1  0  0  0  0
 23130  1  1  0  0  0
 24 25  1  0  0  0  0
 24 85  1  0  0  0  0
 24131  1  6  0  0  0
 25 26  1  0  0  0  0
 25 84  1  0  0  0  0
 25132  1  0  0  0  0
 26 27  1  0  0  0  0
 26 80  1  0  0  0  0
 26133  1  6  0  0  0
 27 28  1  0  0  0  0
 28 29  1  0  0  0  0
 28 71  1  0  0  0  0
 28134  1  6  0  0  0
 29 30  1  0  0  0  0
 29 79  1  0  0  0  0
 29135  1  1  0  0  0
 30 31  1  0  0  0  0
 30 78  1  0  0  0  0
 30136  1  0  0  0  0
 31 32  1  0  0  0  0
 31 70  1  0  0  0  0
 31137  1  6  0  0  0
 32 33  1  0  0  0  0
 33 34  1  0  0  0  0
 33 61  1  0  0  0  0
 33138  1  6  0  0  0
 34 35  1  0  0  0  0
 34 69  1  0  0  0  0
 34139  1  6  0  0  0
 35 36  1  0  0  0  0
 35 68  1  0  0  0  0
 35140  1  0  0  0  0
 36 37  1  0  0  0  0
 36 60  1  0  0  0  0
 36141  1  6  0  0  0
 37 38  1  0  0  0  0
 38 39  1  0  0  0  0
 38 55  1  0  0  0  0
 38142  1  6  0  0  0
 39 40  1  0  0  0  0
 39 59  1  0  0  0  0
 39143  1  6  0  0  0
 40 41  1  0  0  0  0
 40 58  1  0  0  0  0
 40144  1  0  0  0  0
 41 42  1  0  0  0  0
 41 54  1  0  0  0  0
 41145  1  1  0  0  0
 42 43  1  0  0  0  0
 43 44  1  0  0  0  0
 43 49  1  0  0  0  0
 43146  1  1  0  0  0
 44 45  1  0  0  0  0
 44 53  1  0  0  0  0
 44147  1  6  0  0  0
 45 46  1  0  0  0  0
 45 52  1  0  0  0  0
 45148  1  0  0  0  0
 46 47  1  0  0  0  0
 46 48  1  0  0  0  0
 46149  1  1  0  0  0
 48 49  1  0  0  0  0
 49 50  1  0  0  0  0
 49150  1  0  0  0  0
 50 51  1  0  0  0  0
 50151  1  0  0  0  0
 50152  1  0  0  0  0
 51153  1  0  0  0  0
 52154  1  0  0  0  0
 53155  1  0  0  0  0
 54 55  1  0  0  0  0
 55 56  1  0  0  0  0
 55156  1  0  0  0  0
 56 57  1  0  0  0  0
 56157  1  0  0  0  0
 56158  1  0  0  0  0
 57159  1  0  0  0  0
 58160  1  0  0  0  0
 59161  1  0  0  0  0
 60 61  1  0  0  0  0
 61 62  1  0  0  0  0
 61162  1  0  0  0  0
 62 63  1  0  0  0  0
 62163  1  0  0  0  0
 62164  1  0  0  0  0
 63 64  1  0  0  0  0
 64 65  1  0  0  0  0
 64165  1  0  0  0  0
 64166  1  0  0  0  0
 65 66  1  0  0  0  0
 65 67  1  0  0  0  0
 65167  1  0  0  0  0
 66168  1  0  0  0  0
 66169  1  0  0  0  0
 66170  1  0  0  0  0
 67171  1  0  0  0  0
 68172  1  0  0  0  0
 69173  1  0  0  0  0
 70 71  1  0  0  0  0
 71 72  1  0  0  0  0
 71174  1  0  0  0  0
 72 73  1  0  0  0  0
 72175  1  0  0  0  0
 72176  1  0  0  0  0
 73 74  1  0  0  0  0
 74 75  1  0  0  0  0
 74177  1  0  0  0  0
 74178  1  0  0  0  0
 75 76  1  0  0  0  0
 75 77  1  0  0  0  0
 75179  1  0  0  0  0
 76180  1  0  0  0  0
 76181  1  0  0  0  0
 76182  1  0  0  0  0
 77183  1  0  0  0  0
 78184  1  0  0  0  0
 79185  1  0  0  0  0
 80 81  1  0  0  0  0
 81 82  1  0  0  0  0
 81186  1  0  0  0  0
 82 83  1  0  0  0  0
 82187  1  0  0  0  0
 82188  1  0  0  0  0
 83189  1  0  0  0  0
 84190  1  0  0  0  0
 85191  1  0  0  0  0
 86 87  1  0  0  0  0
 87 88  1  0  0  0  0
 87192  1  0  0  0  0
 88 89  1  0  0  0  0
 88193  1  0  0  0  0
 88194  1  0  0  0  0
 89 90  1  0  0  0  0
 90 91  1  0  0  0  0
 90195  1  0  0  0  0
 90196  1  0  0  0  0
 91 92  1  0  0  0  0
 91 93  1  0  0  0  0
 91197  1  0  0  0  0
 92198  1  0  0  0  0
 92199  1  0  0  0  0
 92200  1  0  0  0  0
 93201  1  0  0  0  0
 94202  1  0  0  0  0
 95203  1  0  0  0  0
 96 97  1  0  0  0  0
 97 98  1  0  0  0  0
 97204  1  0  0  0  0
 98 99  1  0  0  0  0
 98205  1  0  0  0  0
 98206  1  0  0  0  0
 99100  1  0  0  0  0
100101  1  0  0  0  0
100207  1  0  0  0  0
100208  1  0  0  0  0
101102  1  0  0  0  0
101103  1  0  0  0  0
101209  1  0  0  0  0
102210  1  0  0  0  0
102211  1  0  0  0  0
102212  1  0  0  0  0
103213  1  0  0  0  0
104214  1  0  0  0  0
105215  1  0  0  0  0
106216  1  0  0  0  0
107217  1  0  0  0  0
108218  1  0  0  0  0
M  END
