
 OpenBabel10072620073D

 46 49  0  0  0  0  0  0  0  0999 V2000
    0.5293    2.4679    0.5602 C   0  0  0  0  0  0  0  0  0  0  0  0
   -0.2513    1.1893    0.4372 C   0  0  0  0  0  0  0  0  0  0  0  0
    0.3802   -0.0587    0.3367 C   0  0  0  0  0  0  0  0  0  0  0  0
   -0.3702   -1.2339    0.2163 C   0  0  0  0  0  0  0  0  0  0  0  0
   -1.7703   -1.1907    0.1811 C   0  0  0  0  0  0  0  0  0  0  0  0
   -2.4005    0.0559    0.3072 C   0  0  0  0  0  0  0  0  0  0  0  0
   -1.6518    1.2306    0.4321 C   0  0  0  0  0  0  0  0  0  0  0  0
   -2.5439   -2.3972    0.0509 N   0  0  0  0  0  0  0  0  0  0  0  0
   -3.6242   -2.5029   -0.8267 C   0  0  0  0  0  0  0  0  0  0  0  0
   -4.4340   -3.5184   -0.8593 N   0  0  0  0  0  0  0  0  0  0  0  0
   -4.2228   -4.5798    0.0204 C   0  0  0  0  0  0  0  0  0  0  0  0
   -5.1233   -5.6480    0.0160 C   0  0  0  0  0  0  0  0  0  0  0  0
   -4.9362   -6.7419    0.8653 C   0  0  0  0  0  0  0  0  0  0  0  0
   -3.8402   -6.7772    1.7256 C   0  0  0  0  0  0  0  0  0  0  0  0
   -2.9368   -5.7156    1.7381 C   0  0  0  0  0  0  0  0  0  0  0  0
   -3.1349   -4.6229    0.8832 C   0  0  0  0  0  0  0  0  0  0  0  0
   -2.2197   -3.4681    0.8990 C   0  0  0  0  0  0  0  0  0  0  0  0
   -1.2682   -3.5039    1.6798 O   0  0  0  0  0  0  0  0  0  0  0  0
   -3.7914   -1.4425   -1.8663 C   0  0  0  0  0  0  0  0  0  0  0  0
   -5.0220   -1.0782   -2.2608 C   0  0  0  0  0  0  0  0  0  0  0  0
   -5.3027   -0.0600   -3.2839 C   0  0  0  0  0  0  0  0  0  0  0  0
   -4.4222    0.2175   -4.3407 C   0  0  0  0  0  0  0  0  0  0  0  0
   -4.7388    1.1807   -5.3051 C   0  0  0  0  0  0  0  0  0  0  0  0
   -5.9553    1.8665   -5.2228 C   0  0  0  0  0  0  0  0  0  0  0  0
   -6.8558    1.5881   -4.1888 C   0  0  0  0  0  0  0  0  0  0  0  0
   -6.5274    0.6230   -3.2303 C   0  0  0  0  0  0  0  0  0  0  0  0
   -6.2910    2.8793   -6.2313 N   0  3  0  0  0  0  0  0  0  0  0  0
   -5.4500    3.1194   -7.1095 O   0  0  0  0  0  0  0  0  0  0  0  0
   -7.3937    3.4378   -6.1422 O   0  5  0  0  0  0  0  0  0  0  0  0
    2.1037   -0.1981    0.3463 Cl  0  0  0  0  0  0  0  0  0  0  0  0
    1.1351    2.4597    1.4722 H   0  0  0  0  0  0  0  0  0  0  0  0
   -0.1332    3.3388    0.6119 H   0  0  0  0  0  0  0  0  0  0  0  0
    1.1782    2.6034   -0.3115 H   0  0  0  0  0  0  0  0  0  0  0  0
    0.1523   -2.1845    0.1322 H   0  0  0  0  0  0  0  0  0  0  0  0
   -3.4853    0.1319    0.3483 H   0  0  0  0  0  0  0  0  0  0  0  0
   -2.1757    2.1794    0.5353 H   0  0  0  0  0  0  0  0  0  0  0  0
   -5.9747   -5.6275   -0.6598 H   0  0  0  0  0  0  0  0  0  0  0  0
   -5.6442   -7.5671    0.8511 H   0  0  0  0  0  0  0  0  0  0  0  0
   -3.6907   -7.6273    2.3870 H   0  0  0  0  0  0  0  0  0  0  0  0
   -2.0846   -5.7366    2.4139 H   0  0  0  0  0  0  0  0  0  0  0  0
   -2.8896   -1.0194   -2.2911 H   0  0  0  0  0  0  0  0  0  0  0  0
   -5.8932   -1.5422   -1.7994 H   0  0  0  0  0  0  0  0  0  0  0  0
   -3.4814   -0.3193   -4.4396 H   0  0  0  0  0  0  0  0  0  0  0  0
   -4.0325    1.3744   -6.1101 H   0  0  0  0  0  0  0  0  0  0  0  0
   -7.8108    2.1047   -4.1158 H   0  0  0  0  0  0  0  0  0  0  0  0
   -7.2406    0.4132   -2.4345 H   0  0  0  0  0  0  0  0  0  0  0  0
  1  2  1  0  0  0  0
  1 31  1  0  0  0  0
  1 32  1  0  0  0  0
  1 33  1  0  0  0  0
  2  3  2  0  0  0  0
  2  7  1  0  0  0  0
  3  4  1  0  0  0  0
  3 30  1  0  0  0  0
  4  5  2  0  0  0  0
  4 34  1  0  0  0  0
  5  6  1  0  0  0  0
  5  8  1  0  0  0  0
  6  7  2  0  0  0  0
  6 35  1  0  0  0  0
  7 36  1  0  0  0  0
  8  9  1  0  0  0  0
  8 17  1  0  0  0  0
  9 10  2  0  0  0  0
  9 19  1  0  0  0  0
 10 11  1  0  0  0  0
 11 12  2  0  0  0  0
 11 16  1  0  0  0  0
 12 13  1  0  0  0  0
 12 37  1  0  0  0  0
 13 14  2  0  0  0  0
 13 38  1  0  0  0  0
 14 15  1  0  0  0  0
 14 39  1  0  0  0  0
 15 16  2  0  0  0  0
 15 40  1  0  0  0  0
 16 17  1  0  0  0  0
 17 18  2  0  0  0  0
 19 20  2  0  0  0  0
 19 41  1  0  0  0  0
 20 21  1  0  0  0  0
 20 42  1  0  0  0  0
 21 22  2  0  0  0  0
 21 26  1  0  0  0  0
 22 23  1  0  0  0  0
 22 43  1  0  0  0  0
 23 24  2  0  0  0  0
 23 44  1  0  0  0  0
 24 25  1  0  0  0  0
 24 27  1  0  0  0  0
 25 26  2  0  0  0  0
 25 45  1  0  0  0  0
 26 46  1  0  0  0  0
 27 28  2  0  0  0  0
 27 29  1  0  0  0  0
M  CHG  2  27   1  29  -1
M  END
