
 OpenBabel10072616333D

 44 47  0  0  0  0  0  0  0  0999 V2000
    1.5842   -0.2913    1.2482 C   0  0  0  0  0  0  0  0  0  0  0  0
    2.8134   -0.1584    0.4030 C   0  0  0  0  0  0  0  0  0  0  0  0
    3.3837    0.9756   -0.1632 C   0  0  0  0  0  0  0  0  0  0  0  0
    4.5713    0.6661   -0.9401 C   0  0  0  0  0  0  0  0  0  0  0  0
    5.4829    1.4337   -1.6939 C   0  0  0  0  0  0  0  0  0  0  0  0
    6.5076    0.8251   -2.3199 N   0  0  0  0  0  0  0  0  0  0  0  0
    6.6271   -0.5059   -2.2111 C   0  0  0  0  0  0  0  0  0  0  0  0
    5.8421   -1.3359   -1.5230 N   0  0  0  0  0  0  0  0  0  0  0  0
    4.8338   -0.6954   -0.9078 C   0  0  0  0  0  0  0  0  0  0  0  0
    3.7128   -1.5649    0.0271 S   0  0  0  0  0  0  0  0  0  0  0  0
    5.4206    2.8138   -1.8383 N   0  0  0  0  0  0  0  0  0  0  0  0
    2.7691    2.2874    0.0116 C   0  0  0  0  0  0  0  0  0  0  0  0
    2.7277    2.8984    1.2686 C   0  0  0  0  0  0  0  0  0  0  0  0
    2.1174    4.1489    1.4307 C   0  0  0  0  0  0  0  0  0  0  0  0
    1.5457    4.8068    0.3401 C   0  0  0  0  0  0  0  0  0  0  0  0
    1.6187    4.2071   -0.9239 C   0  0  0  0  0  0  0  0  0  0  0  0
    2.2137    2.9511   -1.0863 C   0  0  0  0  0  0  0  0  0  0  0  0
    0.8855    6.0513    0.4253 N   0  0  0  0  0  0  0  0  0  0  0  0
    0.4893    6.7176    1.5772 C   0  0  0  0  0  0  0  0  0  0  0  0
    0.6339    6.2980    2.7176 O   0  0  0  0  0  0  0  0  0  0  0  0
   -0.1131    7.9207    1.2495 N   0  0  0  0  0  0  0  0  0  0  0  0
   -0.8190    8.8031    2.1037 C   0  0  0  0  0  0  0  0  0  0  0  0
   -1.1799    8.4741    3.4138 C   0  0  0  0  0  0  0  0  0  0  0  0
   -1.9060    9.3753    4.2006 C   0  0  0  0  0  0  0  0  0  0  0  0
   -2.2825   10.6144    3.6882 C   0  0  0  0  0  0  0  0  0  0  0  0
   -1.9349   10.9575    2.3837 C   0  0  0  0  0  0  0  0  0  0  0  0
   -1.2115   10.0569    1.5974 C   0  0  0  0  0  0  0  0  0  0  0  0
   -0.8113   10.5280   -0.0215 Cl  0  0  0  0  0  0  0  0  0  0  0  0
    0.7827    0.3537    0.8743 H   0  0  0  0  0  0  0  0  0  0  0  0
    1.8018   -0.0095    2.2842 H   0  0  0  0  0  0  0  0  0  0  0  0
    1.1961   -1.3158    1.2514 H   0  0  0  0  0  0  0  0  0  0  0  0
    7.4594   -0.9575   -2.7418 H   0  0  0  0  0  0  0  0  0  0  0  0
    4.9946    3.3052   -1.0635 H   0  0  0  0  0  0  0  0  0  0  0  0
    6.3113    3.1780   -2.1578 H   0  0  0  0  0  0  0  0  0  0  0  0
    3.1600    2.4092    2.1393 H   0  0  0  0  0  0  0  0  0  0  0  0
    2.1090    4.5843    2.4264 H   0  0  0  0  0  0  0  0  0  0  0  0
    1.1973    4.6967   -1.7985 H   0  0  0  0  0  0  0  0  0  0  0  0
    2.2415    2.4999   -2.0762 H   0  0  0  0  0  0  0  0  0  0  0  0
    0.5038    6.4083   -0.4370 H   0  0  0  0  0  0  0  0  0  0  0  0
    0.0766    8.2873    0.3261 H   0  0  0  0  0  0  0  0  0  0  0  0
   -0.9216    7.5148    3.8532 H   0  0  0  0  0  0  0  0  0  0  0  0
   -2.1806    9.1027    5.2176 H   0  0  0  0  0  0  0  0  0  0  0  0
   -2.8510   11.3088    4.3015 H   0  0  0  0  0  0  0  0  0  0  0  0
   -2.2340   11.9221    1.9835 H   0  0  0  0  0  0  0  0  0  0  0  0
  1  2  1  0  0  0  0
  1 29  1  0  0  0  0
  1 30  1  0  0  0  0
  1 31  1  0  0  0  0
  2  3  2  0  0  0  0
  2 10  1  0  0  0  0
  3  4  1  0  0  0  0
  3 12  1  0  0  0  0
  4  5  2  0  0  0  0
  4  9  1  0  0  0  0
  5  6  1  0  0  0  0
  5 11  1  0  0  0  0
  6  7  2  0  0  0  0
  7  8  1  0  0  0  0
  7 32  1  0  0  0  0
  8  9  2  0  0  0  0
  9 10  1  0  0  0  0
 11 33  1  0  0  0  0
 11 34  1  0  0  0  0
 12 13  2  0  0  0  0
 12 17  1  0  0  0  0
 13 14  1  0  0  0  0
 13 35  1  0  0  0  0
 14 15  2  0  0  0  0
 14 36  1  0  0  0  0
 15 16  1  0  0  0  0
 15 18  1  0  0  0  0
 16 17  2  0  0  0  0
 16 37  1  0  0  0  0
 17 38  1  0  0  0  0
 18 19  1  0  0  0  0
 18 39  1  0  0  0  0
 19 20  2  0  0  0  0
 19 21  1  0  0  0  0
 21 22  1  0  0  0  0
 21 40  1  0  0  0  0
 22 23  2  0  0  0  0
 22 27  1  0  0  0  0
 23 24  1  0  0  0  0
 23 41  1  0  0  0  0
 24 25  2  0  0  0  0
 24 42  1  0  0  0  0
 25 26  1  0  0  0  0
 25 43  1  0  0  0  0
 26 27  2  0  0  0  0
 26 44  1  0  0  0  0
 27 28  1  0  0  0  0
M  END
