
 OpenBabel10072620213D

 36 36  0  0  1  0  0  0  0  0999 V2000
    3.9617   -1.5580   -1.3426 C   0  0  0  0  0  0  0  0  0  0  0  0
    4.3522   -0.1074   -1.5819 C   0  0  0  0  0  0  0  0  0  0  0  0
    3.3037    0.8262   -1.1813 N   0  0  0  0  0  0  0  0  0  0  0  0
    2.3212    1.1820   -2.1031 C   0  0  0  0  0  0  0  0  0  0  0  0
    2.2831    0.7343   -3.2510 O   0  0  0  0  0  0  0  0  0  0  0  0
    1.3952    2.1111   -1.6826 N   0  0  0  0  0  0  0  0  0  0  0  0
    0.2514    2.4968   -2.5225 C   0  0  3  0  0  0  0  0  0  0  0  0
    0.6705    3.2656   -3.7851 C   0  0  3  0  0  0  0  0  0  0  0  0
    1.0904    4.7112   -3.4725 C   0  0  3  0  0  0  0  0  0  0  0  0
    0.1336    5.4331   -2.5014 C   0  0  3  0  0  0  0  0  0  0  0  0
   -0.1921    4.6144   -1.3705 O   0  0  0  0  0  0  0  0  0  0  0  0
   -0.7496    3.3549   -1.7142 C   0  0  3  0  0  0  0  0  0  0  0  0
   -1.0375    2.6813   -0.4935 O   0  0  0  0  0  0  0  0  0  0  0  0
   -1.1256    6.0325   -3.1564 C   0  0  0  0  0  0  0  0  0  0  0  0
   -0.8225    7.1252   -4.0190 O   0  0  0  0  0  0  0  0  0  0  0  0
    1.2301    5.4478   -4.6972 O   0  0  0  0  0  0  0  0  0  0  0  0
   -0.4111    3.3023   -4.7347 O   0  0  0  0  0  0  0  0  0  0  0  0
    3.2399    1.3044    0.1340 N   0  0  0  0  0  0  0  0  0  0  0  0
    4.0998    0.8384    0.8875 O   0  0  0  0  0  0  0  0  0  0  0  0
    4.7659   -2.2217   -1.6762 H   0  0  0  0  0  0  0  0  0  0  0  0
    3.0517   -1.8159   -1.8950 H   0  0  0  0  0  0  0  0  0  0  0  0
    3.7750   -1.7509   -0.2812 H   0  0  0  0  0  0  0  0  0  0  0  0
    4.5484    0.0287   -2.6517 H   0  0  0  0  0  0  0  0  0  0  0  0
    5.2889    0.1374   -1.0682 H   0  0  0  0  0  0  0  0  0  0  0  0
    1.1872    2.1268   -0.6882 H   0  0  0  0  0  0  0  0  0  0  0  0
   -0.2504    1.5618   -2.8023 H   0  0  0  0  0  0  0  0  0  0  0  0
    1.4988    2.7798   -4.3111 H   0  0  0  0  0  0  0  0  0  0  0  0
    2.0787    4.6747   -2.9973 H   0  0  0  0  0  0  0  0  0  0  0  0
    0.6927    6.2899   -2.1032 H   0  0  0  0  0  0  0  0  0  0  0  0
   -1.6911    3.4837   -2.2610 H   0  0  0  0  0  0  0  0  0  0  0  0
   -1.6546    3.2732   -0.0295 H   0  0  0  0  0  0  0  0  0  0  0  0
   -1.8057    6.3993   -2.3802 H   0  0  0  0  0  0  0  0  0  0  0  0
   -1.6834    5.2874   -3.7291 H   0  0  0  0  0  0  0  0  0  0  0  0
   -0.0019    6.8945   -4.5009 H   0  0  0  0  0  0  0  0  0  0  0  0
    0.6924    4.9618   -5.3585 H   0  0  0  0  0  0  0  0  0  0  0  0
   -0.4951    2.3963   -5.0929 H   0  0  0  0  0  0  0  0  0  0  0  0
  1  2  1  0  0  0  0
  1 20  1  0  0  0  0
  1 21  1  0  0  0  0
  1 22  1  0  0  0  0
  2  3  1  0  0  0  0
  2 23  1  0  0  0  0
  2 24  1  0  0  0  0
  3  4  1  0  0  0  0
  3 18  1  0  0  0  0
  4  5  2  0  0  0  0
  4  6  1  0  0  0  0
  6  7  1  0  0  0  0
  6 25  1  0  0  0  0
  7  8  1  0  0  0  0
  7 12  1  0  0  0  0
  7 26  1  0  0  0  0
  8  9  1  0  0  0  0
  8 17  1  0  0  0  0
  8 27  1  0  0  0  0
  9 10  1  0  0  0  0
  9 16  1  0  0  0  0
  9 28  1  0  0  0  0
 10 11  1  0  0  0  0
 10 14  1  0  0  0  0
 10 29  1  0  0  0  0
 11 12  1  0  0  0  0
 12 13  1  0  0  0  0
 12 30  1  0  0  0  0
 13 31  1  0  0  0  0
 14 15  1  0  0  0  0
 14 32  1  0  0  0  0
 14 33  1  0  0  0  0
 15 34  1  0  0  0  0
 16 35  1  0  0  0  0
 17 36  1  0  0  0  0
 18 19  2  0  0  0  0
M  END
