
 OpenBabel10072619433D

168176  0  0  1  0  0  0  0  0999 V2000
    7.9762    3.0458   -1.0208 C   0  0  0  0  0  0  0  0  0  0  0  0
    8.2067    2.1337    0.1964 C   0  0  2  0  0  0  0  0  0  0  0  0
    9.2954    1.0541   -0.0039 C   0  0  2  0  0  0  0  0  0  0  0  0
    8.7179   -0.3660    0.0246 C   0  0  1  0  0  0  0  0  0  0  0  0
    7.4359   -0.4183   -0.7873 C   0  0  2  0  0  0  0  0  0  0  0  0
    6.3871    0.5319   -0.1568 C   0  0  3  0  0  0  0  0  0  0  0  0
    6.9832    1.5508    0.6693 O   0  0  0  0  0  0  0  0  0  0  0  0
    5.5303    1.1401   -1.1300 O   0  0  0  0  0  0  0  0  0  0  0  0
    4.7897    0.2510   -1.9758 C   0  0  0  0  0  0  0  0  0  0  0  0
    3.8365   -0.7502   -1.2620 C   0  0  2  0  0  0  0  0  0  0  0  0
    3.2474   -1.7743   -2.2705 C   0  0  2  0  0  0  0  0  0  0  0  0
    2.1420   -1.1230   -3.1330 C   0  0  1  0  0  0  0  0  0  0  0  0
    1.1521   -0.2897   -2.3053 C   0  0  2  0  0  0  0  0  0  0  0  0
    1.8698    0.6205   -1.2739 C   0  0  2  0  0  0  0  0  0  0  0  0
    2.7899   -0.1318   -0.4947 O   0  0  0  0  0  0  0  0  0  0  0  0
    0.8136    1.1476   -0.4530 O   0  0  0  0  0  0  0  0  0  0  0  0
    1.2348    1.8697    0.7327 C   0  0  2  0  0  0  0  0  0  0  0  0
   -0.0692    2.2661    1.4621 C   0  0  2  0  0  0  0  0  0  0  0  0
   -0.6011    3.5581    1.1370 O   0  0  0  0  0  0  0  0  0  0  0  0
    0.2864    4.6281    0.8762 C   0  0  1  0  0  0  0  0  0  0  0  0
    1.7681    4.3424    1.1534 C   0  0  1  0  0  0  0  0  0  0  0  0
    2.1412    3.0686    0.3939 C   0  0  1  0  0  0  0  0  0  0  0  0
    3.5136    2.7232    0.6207 O   0  0  0  0  0  0  0  0  0  0  0  0
    2.5858    5.4476    0.7203 O   0  0  0  0  0  0  0  0  0  0  0  0
    0.2394    5.0617   -0.4983 O   0  0  0  0  0  0  0  0  0  0  0  0
   -1.0275    5.1975   -1.1585 C   0  0  2  0  0  0  0  0  0  0  0  0
   -2.1126    5.9389   -0.3463 C   0  0  2  0  0  0  0  0  0  0  0  0
   -3.1814    5.0539    0.0010 O   0  0  0  0  0  0  0  0  0  0  0  0
   -3.8797    4.4788   -1.0946 C   0  0  1  0  0  0  0  0  0  0  0  0
   -2.9473    3.9241   -2.1974 C   0  0  1  0  0  0  0  0  0  0  0  0
   -1.5075    3.8381   -1.7037 C   0  0  1  0  0  0  0  0  0  0  0  0
   -0.6689    3.4091   -2.7974 O   0  0  0  0  0  0  0  0  0  0  0  0
   -3.3518    2.6155   -2.6619 O   0  0  0  0  0  0  0  0  0  0  0  0
   -4.6561    3.3694   -0.6240 O   0  0  0  0  0  0  0  0  0  0  0  0
   -5.6287    3.7537    0.3710 C   0  0  2  0  0  0  0  0  0  0  0  0
   -5.0664    3.3954    1.7693 C   0  0  2  0  0  0  0  0  0  0  0  0
   -5.1693    2.0096    2.1893 O   0  0  0  0  0  0  0  0  0  0  0  0
   -5.8477    1.1296    1.2997 C   0  0  1  0  0  0  0  0  0  0  0  0
   -7.1640    1.7631    0.8411 C   0  0  1  0  0  0  0  0  0  0  0  0
   -6.9199    3.0127   -0.0001 C   0  0  1  0  0  0  0  0  0  0  0  0
   -8.0440    3.8964    0.1323 O   0  0  0  0  0  0  0  0  0  0  0  0
   -7.9730    0.8424    0.0967 O   0  0  0  0  0  0  0  0  0  0  0  0
   -5.0281    0.7896    0.1848 O   0  0  0  0  0  0  0  0  0  0  0  0
   -3.9950   -0.2007    0.3827 C   0  0  2  0  0  0  0  0  0  0  0  0
   -4.4097   -1.4409   -0.4387 C   0  0  2  0  0  0  0  0  0  0  0  0
   -3.9992   -2.6800    0.1457 O   0  0  0  0  0  0  0  0  0  0  0  0
   -2.6704   -2.6502    0.6417 C   0  0  1  0  0  0  0  0  0  0  0  0
   -2.6304   -1.7822    1.9143 C   0  0  1  0  0  0  0  0  0  0  0  0
   -3.5665   -0.5561    1.8271 C   0  0  1  0  0  0  0  0  0  0  0  0
   -2.8773    0.5650    2.4124 O   0  0  0  0  0  0  0  0  0  0  0  0
   -3.0657   -2.5525    3.0587 O   0  0  0  0  0  0  0  0  0  0  0  0
   -2.1745   -3.9595    0.9672 O   0  0  0  0  0  0  0  0  0  0  0  0
   -2.7228   -5.0222    0.1509 C   0  0  2  0  0  0  0  0  0  0  0  0
   -2.2556   -6.3501    0.7673 C   0  0  2  0  0  0  0  0  0  0  0  0
   -0.8919   -6.7160    0.4944 O   0  0  0  0  0  0  0  0  0  0  0  0
   -0.3030   -6.1825   -0.6848 C   0  0  1  0  0  0  0  0  0  0  0  0
   -1.3095   -5.9150   -1.8144 C   0  0  1  0  0  0  0  0  0  0  0  0
   -2.3473   -4.8824   -1.3402 C   0  0  1  0  0  0  0  0  0  0  0  0
   -3.5394   -5.0324   -2.1286 O   0  0  0  0  0  0  0  0  0  0  0  0
   -0.6237   -5.4059   -2.9777 O   0  0  0  0  0  0  0  0  0  0  0  0
    0.3656   -4.9385   -0.4293 O   0  0  0  0  0  0  0  0  0  0  0  0
    1.3432   -4.9726    0.6254 C   0  0  2  0  0  0  0  0  0  0  0  0
    1.7563   -3.5004    0.8759 C   0  0  2  0  0  0  0  0  0  0  0  0
    3.1560   -3.2552    0.5850 O   0  0  0  0  0  0  0  0  0  0  0  0
    3.4954   -3.6453   -0.7471 C   0  0  2  0  0  0  0  0  0  0  0  0
    2.6630   -2.9509   -1.6780 O   0  0  0  0  0  0  0  0  0  0  0  0
    3.3454   -5.1796   -0.9201 C   0  0  1  0  0  0  0  0  0  0  0  0
    2.5808   -5.8097    0.2582 C   0  0  1  0  0  0  0  0  0  0  0  0
    3.4336   -5.9437    1.4068 O   0  0  0  0  0  0  0  0  0  0  0  0
    2.7224   -5.4924   -2.1720 O   0  0  0  0  0  0  0  0  0  0  0  0
    1.5354   -3.0666    2.3269 C   0  0  0  0  0  0  0  0  0  0  0  0
    1.6895   -1.6455    2.4272 O   0  0  0  0  0  0  0  0  0  0  0  0
   -3.1671   -7.5264    0.3823 C   0  0  0  0  0  0  0  0  0  0  0  0
   -2.7587   -8.6911    1.1017 O   0  0  0  0  0  0  0  0  0  0  0  0
   -3.8950   -1.2944   -1.8896 C   0  0  0  0  0  0  0  0  0  0  0  0
   -4.2589   -2.4319   -2.6677 O   0  0  0  0  0  0  0  0  0  0  0  0
   -5.7215    4.2508    2.8661 C   0  0  0  0  0  0  0  0  0  0  0  0
   -5.1246    3.9612    4.1314 O   0  0  0  0  0  0  0  0  0  0  0  0
   -2.6337    7.2005   -1.0666 C   0  0  0  0  0  0  0  0  0  0  0  0
   -3.7400    7.7701   -0.3700 O   0  0  0  0  0  0  0  0  0  0  0  0
    0.0044    2.0703    2.9872 C   0  0  0  0  0  0  0  0  0  0  0  0
    1.1948    2.6187    3.5416 O   0  0  0  0  0  0  0  0  0  0  0  0
    0.2066   -1.1521   -1.6289 O   0  0  0  0  0  0  0  0  0  0  0  0
    2.7432   -0.3034   -4.1392 O   0  0  0  0  0  0  0  0  0  0  0  0
    6.9543   -1.7759   -0.8412 O   0  0  0  0  0  0  0  0  0  0  0  0
    9.6529   -1.3168   -0.5133 O   0  0  0  0  0  0  0  0  0  0  0  0
   10.2928    1.1267    1.0362 O   0  0  0  0  0  0  0  0  0  0  0  0
    7.6783    2.3215   -2.2063 O   0  0  0  0  0  0  0  0  0  0  0  0
    8.8779    3.6257   -1.2285 H   0  0  0  0  0  0  0  0  0  0  0  0
    7.1522    3.7439   -0.8345 H   0  0  0  0  0  0  0  0  0  0  0  0
    8.5347    2.8042    1.0025 H   0  0  0  0  0  0  0  0  0  0  0  0
    9.8502    1.2199   -0.9323 H   0  0  0  0  0  0  0  0  0  0  0  0
    8.5310   -0.6953    1.0523 H   0  0  0  0  0  0  0  0  0  0  0  0
    7.6525   -0.1502   -1.8258 H   0  0  0  0  0  0  0  0  0  0  0  0
    5.7496   -0.0251    0.5352 H   0  0  0  0  0  0  0  0  0  0  0  0
    4.2347    0.9128   -2.6461 H   0  0  0  0  0  0  0  0  0  0  0  0
    5.4959   -0.2877   -2.6164 H   0  0  0  0  0  0  0  0  0  0  0  0
    4.4216   -1.2838   -0.5129 H   0  0  0  0  0  0  0  0  0  0  0  0
    4.0534   -2.1292   -2.9257 H   0  0  0  0  0  0  0  0  0  0  0  0
    1.5932   -1.9218   -3.6500 H   0  0  0  0  0  0  0  0  0  0  0  0
    0.5454    0.3450   -2.9608 H   0  0  0  0  0  0  0  0  0  0  0  0
    2.3676    1.4494   -1.7855 H   0  0  0  0  0  0  0  0  0  0  0  0
    1.7733    1.1425    1.3512 H   0  0  0  0  0  0  0  0  0  0  0  0
   -0.8593    1.5799    1.1309 H   0  0  0  0  0  0  0  0  0  0  0  0
   -0.0144    5.4788    1.4946 H   0  0  0  0  0  0  0  0  0  0  0  0
    1.9672    4.2440    2.2155 H   0  0  0  0  0  0  0  0  0  0  0  0
    2.0901    3.2844   -0.6768 H   0  0  0  0  0  0  0  0  0  0  0  0
    3.6856    2.7860    1.5796 H   0  0  0  0  0  0  0  0  0  0  0  0
    2.3779    5.5574   -0.2265 H   0  0  0  0  0  0  0  0  0  0  0  0
   -0.7756    5.8158   -2.0286 H   0  0  0  0  0  0  0  0  0  0  0  0
   -1.7174    6.2926    0.6106 H   0  0  0  0  0  0  0  0  0  0  0  0
   -4.5674    5.2120   -1.5333 H   0  0  0  0  0  0  0  0  0  0  0  0
   -2.9930    4.5764   -3.0750 H   0  0  0  0  0  0  0  0  0  0  0  0
   -1.4272    3.0418   -0.9644 H   0  0  0  0  0  0  0  0  0  0  0  0
   -1.1412    2.6468   -3.1823 H   0  0  0  0  0  0  0  0  0  0  0  0
   -4.0204    2.3213   -2.0068 H   0  0  0  0  0  0  0  0  0  0  0  0
   -5.8043    4.8353    0.3003 H   0  0  0  0  0  0  0  0  0  0  0  0
   -3.9874    3.5951    1.7938 H   0  0  0  0  0  0  0  0  0  0  0  0
   -6.1119    0.2140    1.8369 H   0  0  0  0  0  0  0  0  0  0  0  0
   -7.7533    2.0287    1.7236 H   0  0  0  0  0  0  0  0  0  0  0  0
   -6.8979    2.7388   -1.0627 H   0  0  0  0  0  0  0  0  0  0  0  0
   -8.8312    3.3873   -0.1385 H   0  0  0  0  0  0  0  0  0  0  0  0
   -7.3974    0.4246   -0.5699 H   0  0  0  0  0  0  0  0  0  0  0  0
   -3.1128    0.2450   -0.0965 H   0  0  0  0  0  0  0  0  0  0  0  0
   -5.5026   -1.5042   -0.4941 H   0  0  0  0  0  0  0  0  0  0  0  0
   -1.9984   -2.2189   -0.1057 H   0  0  0  0  0  0  0  0  0  0  0  0
   -1.5968   -1.5024    2.1416 H   0  0  0  0  0  0  0  0  0  0  0  0
   -4.4354   -0.7332    2.4667 H   0  0  0  0  0  0  0  0  0  0  0  0
   -3.5598    1.2492    2.5758 H   0  0  0  0  0  0  0  0  0  0  0  0
   -2.6673   -3.4405    2.9560 H   0  0  0  0  0  0  0  0  0  0  0  0
   -3.8112   -4.9842    0.2817 H   0  0  0  0  0  0  0  0  0  0  0  0
   -2.2979   -6.2588    1.8609 H   0  0  0  0  0  0  0  0  0  0  0  0
    0.4302   -6.9078   -1.0503 H   0  0  0  0  0  0  0  0  0  0  0  0
   -1.7989   -6.8421   -2.1255 H   0  0  0  0  0  0  0  0  0  0  0  0
   -1.9604   -3.8844   -1.5671 H   0  0  0  0  0  0  0  0  0  0  0  0
   -4.0215   -4.1746   -2.0769 H   0  0  0  0  0  0  0  0  0  0  0  0
   -0.0945   -4.6465   -2.6610 H   0  0  0  0  0  0  0  0  0  0  0  0
    0.8662   -5.3702    1.5285 H   0  0  0  0  0  0  0  0  0  0  0  0
    1.1644   -2.8219    0.2512 H   0  0  0  0  0  0  0  0  0  0  0  0
    4.5518   -3.4050   -0.9170 H   0  0  0  0  0  0  0  0  0  0  0  0
    4.3484   -5.6228   -0.9413 H   0  0  0  0  0  0  0  0  0  0  0  0
    2.2826   -6.8262   -0.0154 H   0  0  0  0  0  0  0  0  0  0  0  0
    3.8373   -5.0733    1.5883 H   0  0  0  0  0  0  0  0  0  0  0  0
    2.1879   -4.7049   -2.4006 H   0  0  0  0  0  0  0  0  0  0  0  0
    2.2747   -3.5235    2.9910 H   0  0  0  0  0  0  0  0  0  0  0  0
    0.5301   -3.3176    2.6779 H   0  0  0  0  0  0  0  0  0  0  0  0
    2.4330   -1.4073    1.8349 H   0  0  0  0  0  0  0  0  0  0  0  0
   -4.2099   -7.3189    0.6398 H   0  0  0  0  0  0  0  0  0  0  0  0
   -3.1129   -7.7691   -0.6815 H   0  0  0  0  0  0  0  0  0  0  0  0
   -1.7841   -8.7156    1.0400 H   0  0  0  0  0  0  0  0  0  0  0  0
   -2.8038   -1.2126   -1.9158 H   0  0  0  0  0  0  0  0  0  0  0  0
   -4.3219   -0.4019   -2.3597 H   0  0  0  0  0  0  0  0  0  0  0  0
   -3.8785   -2.3021   -3.5567 H   0  0  0  0  0  0  0  0  0  0  0  0
   -6.7960    4.0537    2.9527 H   0  0  0  0  0  0  0  0  0  0  0  0
   -5.5687    5.3168    2.6743 H   0  0  0  0  0  0  0  0  0  0  0  0
   -5.1035    2.9878    4.2062 H   0  0  0  0  0  0  0  0  0  0  0  0
   -2.9816    6.9740   -2.0808 H   0  0  0  0  0  0  0  0  0  0  0  0
   -1.8440    7.9576   -1.1337 H   0  0  0  0  0  0  0  0  0  0  0  0
   -3.4993    7.8545    0.5755 H   0  0  0  0  0  0  0  0  0  0  0  0
   -0.8534    2.5421    3.4790 H   0  0  0  0  0  0  0  0  0  0  0  0
    0.0060    1.0008    3.2197 H   0  0  0  0  0  0  0  0  0  0  0  0
    1.2276    2.3284    4.4699 H   0  0  0  0  0  0  0  0  0  0  0  0
    0.0586   -0.7089   -0.7748 H   0  0  0  0  0  0  0  0  0  0  0  0
    2.0577   -0.1188   -4.8109 H   0  0  0  0  0  0  0  0  0  0  0  0
    7.7675   -2.3082   -0.9722 H   0  0  0  0  0  0  0  0  0  0  0  0
   10.5227   -1.0698   -0.1384 H   0  0  0  0  0  0  0  0  0  0  0  0
    9.8242    1.1557    1.8912 H   0  0  0  0  0  0  0  0  0  0  0  0
    6.7185    2.1370   -2.1412 H   0  0  0  0  0  0  0  0  0  0  0  0
  1  2  1  0  0  0  0
  1 88  1  0  0  0  0
  1 89  1  0  0  0  0
  1 90  1  0  0  0  0
  2  3  1  0  0  0  0
  2  7  1  0  0  0  0
  2 91  1  1  0  0  0
  3  4  1  0  0  0  0
  3 87  1  0  0  0  0
  3 92  1  6  0  0  0
  4  5  1  0  0  0  0
  4 86  1  0  0  0  0
  4 93  1  1  0  0  0
  5  6  1  0  0  0  0
  5 85  1  0  0  0  0
  5 94  1  6  0  0  0
  6  7  1  0  0  0  0
  6  8  1  0  0  0  0
  6 95  1  0  0  0  0
  8  9  1  0  0  0  0
  9 10  1  0  0  0  0
  9 96  1  0  0  0  0
  9 97  1  0  0  0  0
 10 11  1  0  0  0  0
 10 15  1  0  0  0  0
 10 98  1  1  0  0  0
 11 12  1  0  0  0  0
 11 66  1  0  0  0  0
 11 99  1  6  0  0  0
 12 13  1  0  0  0  0
 12 84  1  0  0  0  0
 12100  1  6  0  0  0
 13 14  1  0  0  0  0
 13 83  1  0  0  0  0
 13101  1  6  0  0  0
 14 15  1  0  0  0  0
 14 16  1  0  0  0  0
 14102  1  6  0  0  0
 16 17  1  0  0  0  0
 17 18  1  0  0  0  0
 17 22  1  0  0  0  0
 17103  1  1  0  0  0
 18 19  1  0  0  0  0
 18 81  1  0  0  0  0
 18104  1  6  0  0  0
 19 20  1  0  0  0  0
 20 21  1  0  0  0  0
 20 25  1  0  0  0  0
 20105  1  1  0  0  0
 21 22  1  0  0  0  0
 21 24  1  0  0  0  0
 21106  1  1  0  0  0
 22 23  1  0  0  0  0
 22107  1  6  0  0  0
 23108  1  0  0  0  0
 24109  1  0  0  0  0
 25 26  1  0  0  0  0
 26 27  1  0  0  0  0
 26 31  1  0  0  0  0
 26110  1  6  0  0  0
 27 28  1  0  0  0  0
 27 79  1  0  0  0  0
 27111  1  1  0  0  0
 28 29  1  0  0  0  0
 29 30  1  0  0  0  0
 29 34  1  0  0  0  0
 29112  1  6  0  0  0
 30 31  1  0  0  0  0
 30 33  1  0  0  0  0
 30113  1  6  0  0  0
 31 32  1  0  0  0  0
 31114  1  1  0  0  0
 32115  1  0  0  0  0
 33116  1  0  0  0  0
 34 35  1  0  0  0  0
 35 36  1  0  0  0  0
 35 40  1  0  0  0  0
 35117  1  6  0  0  0
 36 37  1  0  0  0  0
 36 77  1  0  0  0  0
 36118  1  6  0  0  0
 37 38  1  0  0  0  0
 38 39  1  0  0  0  0
 38 43  1  0  0  0  0
 38119  1  1  0  0  0
 39 40  1  0  0  0  0
 39 42  1  0  0  0  0
 39120  1  1  0  0  0
 40 41  1  0  0  0  0
 40121  1  6  0  0  0
 41122  1  0  0  0  0
 42123  1  0  0  0  0
 43 44  1  0  0  0  0
 44 45  1  0  0  0  0
 44 49  1  0  0  0  0
 44124  1  6  0  0  0
 45 46  1  0  0  0  0
 45 75  1  0  0  0  0
 45125  1  6  0  0  0
 46 47  1  0  0  0  0
 47 48  1  0  0  0  0
 47 52  1  0  0  0  0
 47126  1  6  0  0  0
 48 49  1  0  0  0  0
 48 51  1  0  0  0  0
 48127  1  1  0  0  0
 49 50  1  0  0  0  0
 49128  1  1  0  0  0
 50129  1  0  0  0  0
 51130  1  0  0  0  0
 52 53  1  0  0  0  0
 53 54  1  0  0  0  0
 53 58  1  0  0  0  0
 53131  1  1  0  0  0
 54 55  1  0  0  0  0
 54 73  1  0  0  0  0
 54132  1  1  0  0  0
 55 56  1  0  0  0  0
 56 57  1  0  0  0  0
 56 61  1  0  0  0  0
 56133  1  6  0  0  0
 57 58  1  0  0  0  0
 57 60  1  0  0  0  0
 57134  1  6  0  0  0
 58 59  1  0  0  0  0
 58135  1  6  0  0  0
 59136  1  0  0  0  0
 60137  1  0  0  0  0
 61 62  1  0  0  0  0
 62 63  1  0  0  0  0
 62 68  1  0  0  0  0
 62138  1  1  0  0  0
 63 64  1  0  0  0  0
 63 71  1  0  0  0  0
 63139  1  6  0  0  0
 64 65  1  0  0  0  0
 65 66  1  0  0  0  0
 65 67  1  0  0  0  0
 65140  1  6  0  0  0
 67 68  1  0  0  0  0
 67 70  1  0  0  0  0
 67141  1  6  0  0  0
 68 69  1  0  0  0  0
 68142  1  6  0  0  0
 69143  1  0  0  0  0
 70144  1  0  0  0  0
 71 72  1  0  0  0  0
 71145  1  0  0  0  0
 71146  1  0  0  0  0
 72147  1  0  0  0  0
 73 74  1  0  0  0  0
 73148  1  0  0  0  0
 73149  1  0  0  0  0
 74150  1  0  0  0  0
 75 76  1  0  0  0  0
 75151  1  0  0  0  0
 75152  1  0  0  0  0
 76153  1  0  0  0  0
 77 78  1  0  0  0  0
 77154  1  0  0  0  0
 77155  1  0  0  0  0
 78156  1  0  0  0  0
 79 80  1  0  0  0  0
 79157  1  0  0  0  0
 79158  1  0  0  0  0
 80159  1  0  0  0  0
 81 82  1  0  0  0  0
 81160  1  0  0  0  0
 81161  1  0  0  0  0
 82162  1  0  0  0  0
 83163  1  0  0  0  0
 84164  1  0  0  0  0
 85165  1  0  0  0  0
 86166  1  0  0  0  0
 87167  1  0  0  0  0
 88168  1  0  0  0  0
M  END
