
 OpenBabel10072619573D

 36 37  0  0  0  0  0  0  0  0999 V2000
    3.0481    1.3757    0.7579 C   0  0  0  0  0  0  0  0  0  0  0  0
    2.6200    0.0967    0.0201 C   0  0  0  0  0  0  0  0  0  0  0  0
    2.5727   -1.0859    0.9999 C   0  0  0  0  0  0  0  0  0  0  0  0
    1.2070    0.3278   -0.5496 C   0  0  0  0  0  0  0  0  0  0  0  0
    3.5132   -0.1922   -1.1155 N   0  0  0  0  0  0  0  0  0  0  0  0
    4.8767   -0.3978   -0.9974 C   0  0  0  0  0  0  0  0  0  0  0  0
    5.4800   -0.3562    0.0639 O   0  0  0  0  0  0  0  0  0  0  0  0
    5.4229   -0.6245   -2.2452 N   0  0  0  0  0  0  0  0  0  0  0  0
    6.7477   -0.9992   -2.5475 C   0  0  0  0  0  0  0  0  0  0  0  0
    7.6684   -1.4274   -1.5905 C   0  0  0  0  0  0  0  0  0  0  0  0
    8.9750   -1.8055   -1.9569 C   0  0  0  0  0  0  0  0  0  0  0  0
    9.9049   -2.2352   -0.9983 C   0  0  0  0  0  0  0  0  0  0  0  0
   11.1969   -2.6098   -1.3723 C   0  0  0  0  0  0  0  0  0  0  0  0
   11.5753   -2.5568   -2.7103 C   0  0  0  0  0  0  0  0  0  0  0  0
   10.6642   -2.1308   -3.6774 C   0  0  0  0  0  0  0  0  0  0  0  0
    9.3588   -1.7534   -3.3151 C   0  0  0  0  0  0  0  0  0  0  0  0
    8.4279   -1.3281   -4.2710 C   0  0  0  0  0  0  0  0  0  0  0  0
    7.1333   -0.9587   -3.8910 C   0  0  0  0  0  0  0  0  0  0  0  0
    2.3172    1.6527    1.5260 H   0  0  0  0  0  0  0  0  0  0  0  0
    3.1392    2.2177    0.0626 H   0  0  0  0  0  0  0  0  0  0  0  0
    4.0132    1.2607    1.2601 H   0  0  0  0  0  0  0  0  0  0  0  0
    1.8512   -0.9053    1.8050 H   0  0  0  0  0  0  0  0  0  0  0  0
    3.5456   -1.2678    1.4682 H   0  0  0  0  0  0  0  0  0  0  0  0
    2.2823   -2.0098    0.4869 H   0  0  0  0  0  0  0  0  0  0  0  0
    0.4884    0.5774    0.2393 H   0  0  0  0  0  0  0  0  0  0  0  0
    0.8398   -0.5656   -1.0687 H   0  0  0  0  0  0  0  0  0  0  0  0
    1.2074    1.1484   -1.2772 H   0  0  0  0  0  0  0  0  0  0  0  0
    3.0969   -0.7294   -1.8618 H   0  0  0  0  0  0  0  0  0  0  0  0
    4.8532   -0.3152   -3.0171 H   0  0  0  0  0  0  0  0  0  0  0  0
    7.3881   -1.4833   -0.5422 H   0  0  0  0  0  0  0  0  0  0  0  0
    9.6268   -2.2793    0.0529 H   0  0  0  0  0  0  0  0  0  0  0  0
   11.9045   -2.9417   -0.6174 H   0  0  0  0  0  0  0  0  0  0  0  0
   12.5813   -2.8473   -3.0026 H   0  0  0  0  0  0  0  0  0  0  0  0
   10.9783   -2.0945   -4.7177 H   0  0  0  0  0  0  0  0  0  0  0  0
    8.7015   -1.2796   -5.3223 H   0  0  0  0  0  0  0  0  0  0  0  0
    6.4397   -0.6335   -4.6608 H   0  0  0  0  0  0  0  0  0  0  0  0
  1  2  1  0  0  0  0
  1 19  1  0  0  0  0
  1 20  1  0  0  0  0
  1 21  1  0  0  0  0
  2  3  1  0  0  0  0
  2  4  1  0  0  0  0
  2  5  1  0  0  0  0
  3 22  1  0  0  0  0
  3 23  1  0  0  0  0
  3 24  1  0  0  0  0
  4 25  1  0  0  0  0
  4 26  1  0  0  0  0
  4 27  1  0  0  0  0
  5  6  1  0  0  0  0
  5 28  1  0  0  0  0
  6  7  2  0  0  0  0
  6  8  1  0  0  0  0
  8  9  1  0  0  0  0
  8 29  1  0  0  0  0
  9 10  2  0  0  0  0
  9 18  1  0  0  0  0
 10 11  1  0  0  0  0
 10 30  1  0  0  0  0
 11 12  2  0  0  0  0
 11 16  1  0  0  0  0
 12 13  1  0  0  0  0
 12 31  1  0  0  0  0
 13 14  2  0  0  0  0
 13 32  1  0  0  0  0
 14 15  1  0  0  0  0
 14 33  1  0  0  0  0
 15 16  2  0  0  0  0
 15 34  1  0  0  0  0
 16 17  1  0  0  0  0
 17 18  2  0  0  0  0
 17 35  1  0  0  0  0
 18 36  1  0  0  0  0
M  END
