
 OpenBabel10072620183D

 24 24  0  0  0  0  0  0  0  0999 V2000
    1.3535   -0.0241    0.0857 C   0  0  0  0  0  0  0  0  0  0  0  0
    0.6211   -1.1726   -0.1846 C   0  0  0  0  0  0  0  0  0  0  0  0
   -0.7717   -1.1112   -0.2463 C   0  0  0  0  0  0  0  0  0  0  0  0
   -1.4658    0.1016   -0.0419 C   0  0  0  0  0  0  0  0  0  0  0  0
   -0.7109    1.2572    0.2322 C   0  0  0  0  0  0  0  0  0  0  0  0
    0.6921    1.1851    0.2951 C   0  0  0  0  0  0  0  0  0  0  0  0
   -1.2833    2.6034    0.4668 C   0  0  0  0  0  0  0  0  0  0  0  0
   -2.5553    2.8247    0.4907 N   0  0  0  0  0  0  0  0  0  0  0  0
   -2.9164    4.1227    0.7143 N   0  0  0  0  0  0  0  0  0  0  0  0
   -4.2326    4.5068    0.7814 C   0  0  0  0  0  0  0  0  0  0  0  0
   -4.5791    5.6555    1.0262 O   0  0  0  0  0  0  0  0  0  0  0  0
   -5.1202    3.5082    0.5522 N   0  0  0  0  0  0  0  0  0  0  0  0
   -2.9737    0.0902   -0.1373 C   0  0  0  0  0  0  0  0  0  0  0  0
   -3.4659   -1.1566   -0.4197 F   0  0  0  0  0  0  0  0  0  0  0  0
   -3.6031    0.4487    1.0160 F   0  0  0  0  0  0  0  0  0  0  0  0
   -3.4644    0.8814   -1.1295 F   0  0  0  0  0  0  0  0  0  0  0  0
    2.4393   -0.0687    0.1348 H   0  0  0  0  0  0  0  0  0  0  0  0
    1.1315   -2.1192   -0.3489 H   0  0  0  0  0  0  0  0  0  0  0  0
   -1.3215   -2.0285   -0.4607 H   0  0  0  0  0  0  0  0  0  0  0  0
    1.2881    2.0704    0.5075 H   0  0  0  0  0  0  0  0  0  0  0  0
   -0.5606    3.4258    0.6258 H   0  0  0  0  0  0  0  0  0  0  0  0
   -2.2247    4.8467    0.8685 H   0  0  0  0  0  0  0  0  0  0  0  0
   -4.7453    2.5704    0.6175 H   0  0  0  0  0  0  0  0  0  0  0  0
   -6.0935    3.6795    0.7467 H   0  0  0  0  0  0  0  0  0  0  0  0
  1  2  2  0  0  0  0
  1  6  1  0  0  0  0
  1 17  1  0  0  0  0
  2  3  1  0  0  0  0
  2 18  1  0  0  0  0
  3  4  2  0  0  0  0
  3 19  1  0  0  0  0
  4  5  1  0  0  0  0
  4 13  1  0  0  0  0
  5  6  2  0  0  0  0
  5  7  1  0  0  0  0
  6 20  1  0  0  0  0
  7  8  2  0  0  0  0
  7 21  1  0  0  0  0
  8  9  1  0  0  0  0
  9 10  1  0  0  0  0
  9 22  1  0  0  0  0
 10 11  2  0  0  0  0
 10 12  1  0  0  0  0
 12 23  1  0  0  0  0
 12 24  1  0  0  0  0
 13 14  1  0  0  0  0
 13 15  1  0  0  0  0
 13 16  1  0  0  0  0
M  END
