
 OpenBabel10072616333D

 35 36  0  0  0  0  0  0  0  0999 V2000
    2.1052   -0.5851    1.1300 C   0  0  0  0  0  0  0  0  0  0  0  0
    2.0455   -0.2396   -0.2490 O   0  0  0  0  0  0  0  0  0  0  0  0
    2.8571   -0.9461   -1.1076 C   0  0  0  0  0  0  0  0  0  0  0  0
    2.6575   -0.6826   -2.4806 C   0  0  0  0  0  0  0  0  0  0  0  0
    3.4627   -1.3183   -3.4289 C   0  0  0  0  0  0  0  0  0  0  0  0
    4.4353   -2.2522   -3.0323 C   0  0  0  0  0  0  0  0  0  0  0  0
    4.6059   -2.5205   -1.6671 C   0  0  0  0  0  0  0  0  0  0  0  0
    3.8280   -1.8681   -0.7093 C   0  0  0  0  0  0  0  0  0  0  0  0
    5.3096   -2.9436   -4.0493 C   0  0  0  0  0  0  0  0  0  0  0  0
    4.9703   -2.6793   -5.3402 F   0  0  0  0  0  0  0  0  0  0  0  0
    6.6198   -2.5903   -3.9273 F   0  0  0  0  0  0  0  0  0  0  0  0
    5.2782   -4.2998   -3.9233 F   0  0  0  0  0  0  0  0  0  0  0  0
    1.6751    0.2823   -2.8058 N   0  0  0  0  0  0  0  0  0  0  0  0
    0.9811    0.5393   -3.9553 C   0  0  0  0  0  0  0  0  0  0  0  0
    0.7435   -0.4887   -5.2559 S   0  0  0  0  0  0  0  0  0  0  0  0
    0.2976    1.7313   -3.9987 N   0  0  0  0  0  0  0  0  0  0  0  0
    0.4434    2.9228   -3.2581 C   0  0  0  0  0  0  0  0  0  0  0  0
    1.5724    3.2366   -2.4957 C   0  0  0  0  0  0  0  0  0  0  0  0
    1.6328    4.4439   -1.7925 C   0  0  0  0  0  0  0  0  0  0  0  0
    0.5764    5.3471   -1.8666 C   0  0  0  0  0  0  0  0  0  0  0  0
   -0.5351    5.0656   -2.6502 C   0  0  0  0  0  0  0  0  0  0  0  0
   -0.5976    3.8586   -3.3515 C   0  0  0  0  0  0  0  0  0  0  0  0
    0.6142    6.5055   -1.1917 F   0  0  0  0  0  0  0  0  0  0  0  0
    3.0261    4.8000   -0.8448 Cl  0  0  0  0  0  0  0  0  0  0  0  0
    1.3332   -0.0103    1.6517 H   0  0  0  0  0  0  0  0  0  0  0  0
    3.0743   -0.3119    1.5594 H   0  0  0  0  0  0  0  0  0  0  0  0
    1.8875   -1.6472    1.2831 H   0  0  0  0  0  0  0  0  0  0  0  0
    3.3764   -1.0809   -4.4845 H   0  0  0  0  0  0  0  0  0  0  0  0
    5.3627   -3.2359   -1.3436 H   0  0  0  0  0  0  0  0  0  0  0  0
    4.0073   -2.0988    0.3361 H   0  0  0  0  0  0  0  0  0  0  0  0
    1.2722    0.7117   -1.9758 H   0  0  0  0  0  0  0  0  0  0  0  0
   -0.3977    1.7484   -4.7382 H   0  0  0  0  0  0  0  0  0  0  0  0
    2.4371    2.5813   -2.4653 H   0  0  0  0  0  0  0  0  0  0  0  0
   -1.3482    5.7836   -2.7077 H   0  0  0  0  0  0  0  0  0  0  0  0
   -1.4796    3.6513   -3.9535 H   0  0  0  0  0  0  0  0  0  0  0  0
  1  2  1  0  0  0  0
  1 25  1  0  0  0  0
  1 26  1  0  0  0  0
  1 27  1  0  0  0  0
  2  3  1  0  0  0  0
  3  4  2  0  0  0  0
  3  8  1  0  0  0  0
  4  5  1  0  0  0  0
  4 13  1  0  0  0  0
  5  6  2  0  0  0  0
  5 28  1  0  0  0  0
  6  7  1  0  0  0  0
  6  9  1  0  0  0  0
  7  8  2  0  0  0  0
  7 29  1  0  0  0  0
  8 30  1  0  0  0  0
  9 10  1  0  0  0  0
  9 11  1  0  0  0  0
  9 12  1  0  0  0  0
 13 14  1  0  0  0  0
 13 31  1  0  0  0  0
 14 15  2  0  0  0  0
 14 16  1  0  0  0  0
 16 17  1  0  0  0  0
 16 32  1  0  0  0  0
 17 18  2  0  0  0  0
 17 22  1  0  0  0  0
 18 19  1  0  0  0  0
 18 33  1  0  0  0  0
 19 20  2  0  0  0  0
 19 24  1  0  0  0  0
 20 21  1  0  0  0  0
 20 23  1  0  0  0  0
 21 22  2  0  0  0  0
 21 34  1  0  0  0  0
 22 35  1  0  0  0  0
M  END
