
 OpenBabel10072616273D

 16 16  0  0  0  0  0  0  0  0999 V2000
    0.0392   -1.4280    0.0247 C   0  0  0  0  0  0  0  0  0  0  0  0
    1.1276   -0.6276    0.2695 C   0  0  0  0  0  0  0  0  0  0  0  0
    1.0918    0.7167    0.2039 N   0  0  0  0  0  0  0  0  0  0  0  0
   -0.0859    1.2720   -0.1205 C   0  0  0  0  0  0  0  0  0  0  0  0
   -1.2091    0.5781   -0.3786 N   0  0  0  0  0  0  0  0  0  0  0  0
   -1.1179   -0.7634   -0.2992 C   0  0  0  0  0  0  0  0  0  0  0  0
   -0.0755    2.6591   -0.1760 N   0  0  0  0  0  0  0  0  0  0  0  0
   -1.0740    3.5181   -0.4672 C   0  0  0  0  0  0  0  0  0  0  0  0
   -0.8079    5.1609   -0.4682 S   0  0  0  0  0  0  0  0  0  0  0  0
   -2.2941    3.0322   -0.7585 N   0  0  0  0  0  0  0  0  0  0  0  0
    0.0901   -2.5061    0.0828 H   0  0  0  0  0  0  0  0  0  0  0  0
    2.0912   -1.0537    0.5339 H   0  0  0  0  0  0  0  0  0  0  0  0
   -2.0352   -1.3051   -0.5112 H   0  0  0  0  0  0  0  0  0  0  0  0
    0.8262    3.0583    0.0378 H   0  0  0  0  0  0  0  0  0  0  0  0
   -2.4520    2.0280   -0.7572 H   0  0  0  0  0  0  0  0  0  0  0  0
   -3.0595    3.6533   -0.9800 H   0  0  0  0  0  0  0  0  0  0  0  0
  1  2  2  0  0  0  0
  1  6  1  0  0  0  0
  1 11  1  0  0  0  0
  2  3  1  0  0  0  0
  2 12  1  0  0  0  0
  3  4  2  0  0  0  0
  4  5  1  0  0  0  0
  4  7  1  0  0  0  0
  5  6  2  0  0  0  0
  6 13  1  0  0  0  0
  7  8  1  0  0  0  0
  7 14  1  0  0  0  0
  8  9  2  0  0  0  0
  8 10  1  0  0  0  0
 10 15  1  0  0  0  0
 10 16  1  0  0  0  0
M  END
