
 OpenBabel10072619433D

 79 83  0  0  0  0  0  0  0  0999 V2000
    3.3480    0.9193   -5.3934 C   0  0  0  0  0  0  0  0  0  0  0  0
    4.6376    1.3780   -4.7253 C   0  0  0  0  0  0  0  0  0  0  0  0
    4.3944    1.8395   -3.3050 C   0  0  0  0  0  0  0  0  0  0  0  0
    4.2508    3.2258   -3.0888 C   0  0  0  0  0  0  0  0  0  0  0  0
    3.9732    3.7332   -1.8214 C   0  0  0  0  0  0  0  0  0  0  0  0
    3.8374    2.8617   -0.7496 C   0  0  0  0  0  0  0  0  0  0  0  0
    3.9688    1.4854   -0.9457 C   0  0  0  0  0  0  0  0  0  0  0  0
    4.2299    0.9547   -2.2167 C   0  0  0  0  0  0  0  0  0  0  0  0
    4.3460   -0.4431   -2.4175 N   0  0  0  0  0  0  0  0  0  0  0  0
    3.7810   -1.4257   -1.6206 C   0  0  0  0  0  0  0  0  0  0  0  0
    3.0323   -1.2224   -0.6727 O   0  0  0  0  0  0  0  0  0  0  0  0
    4.1776   -2.6900   -2.0430 N   0  0  0  0  0  0  0  0  0  0  0  0
    3.6237   -3.8930   -1.5530 C   0  0  0  0  0  0  0  0  0  0  0  0
    2.3145   -3.9708   -1.0884 C   0  0  0  0  0  0  0  0  0  0  0  0
    1.8151   -5.1594   -0.5170 C   0  0  0  0  0  0  0  0  0  0  0  0
    2.5937   -6.3313   -0.4462 C   0  0  0  0  0  0  0  0  0  0  0  0
    3.8911   -6.2346   -0.9986 C   0  0  0  0  0  0  0  0  0  0  0  0
    4.4010   -5.0462   -1.5454 C   0  0  0  0  0  0  0  0  0  0  0  0
    2.2584   -7.5452    0.1680 N   0  0  0  0  0  0  0  0  0  0  0  0
    1.1738   -7.6038    1.1739 C   0  0  0  0  0  0  0  0  0  0  0  0
    1.2699   -8.9099    1.9947 C   0  0  0  0  0  0  0  0  0  0  0  0
    1.2324  -10.0938    1.1089 N   0  0  0  0  0  0  0  0  0  0  0  0
    2.2959  -10.0433    0.0732 C   0  0  0  0  0  0  0  0  0  0  0  0
    2.2110   -8.7253   -0.7398 C   0  0  0  0  0  0  0  0  0  0  0  0
    1.0418  -11.3654    1.6865 C   0  0  0  0  0  0  0  0  0  0  0  0
    1.2419  -11.5877    3.0624 C   0  0  0  0  0  0  0  0  0  0  0  0
    1.0589  -12.8465    3.6427 C   0  0  0  0  0  0  0  0  0  0  0  0
    0.6639  -13.9218    2.8610 C   0  0  0  0  0  0  0  0  0  0  0  0
    0.4298  -13.7348    1.5009 C   0  0  0  0  0  0  0  0  0  0  0  0
    0.6074  -12.4738    0.9083 C   0  0  0  0  0  0  0  0  0  0  0  0
    0.3138  -12.2242   -0.4145 O   0  0  0  0  0  0  0  0  0  0  0  0
    0.1354  -13.3466   -1.2658 C   0  0  0  0  0  0  0  0  0  0  0  0
    0.4040   -5.0718   -0.0914 C   0  0  0  0  0  0  0  0  0  0  0  0
   -0.4427   -5.6094   -0.8005 O   0  0  0  0  0  0  0  0  0  0  0  0
    0.1063   -4.3307    1.0536 N   0  0  0  0  0  0  0  0  0  0  0  0
   -1.2883   -4.1943    1.4566 C   0  0  0  0  0  0  0  0  0  0  0  0
   -1.6200   -2.7417    1.7838 C   0  0  0  0  0  0  0  0  0  0  0  0
   -0.6420   -2.1672    2.8067 C   0  0  0  0  0  0  0  0  0  0  0  0
    0.8006   -2.3426    2.3357 C   0  0  0  0  0  0  0  0  0  0  0  0
    1.0940   -3.8022    2.0019 C   0  0  0  0  0  0  0  0  0  0  0  0
    3.5386    0.6342   -6.4328 H   0  0  0  0  0  0  0  0  0  0  0  0
    2.5967    1.7170   -5.3916 H   0  0  0  0  0  0  0  0  0  0  0  0
    2.9138    0.0549   -4.8801 H   0  0  0  0  0  0  0  0  0  0  0  0
    5.0727    2.1984   -5.3109 H   0  0  0  0  0  0  0  0  0  0  0  0
    5.3900    0.5812   -4.7453 H   0  0  0  0  0  0  0  0  0  0  0  0
    4.3438    3.9233   -3.9193 H   0  0  0  0  0  0  0  0  0  0  0  0
    3.8608    4.8042   -1.6727 H   0  0  0  0  0  0  0  0  0  0  0  0
    3.6263    3.2448    0.2451 H   0  0  0  0  0  0  0  0  0  0  0  0
    3.8693    0.8418   -0.0757 H   0  0  0  0  0  0  0  0  0  0  0  0
    4.5860   -0.7521   -3.3449 H   0  0  0  0  0  0  0  0  0  0  0  0
    5.1038   -2.7377   -2.4423 H   0  0  0  0  0  0  0  0  0  0  0  0
    1.6546   -3.1073   -1.1505 H   0  0  0  0  0  0  0  0  0  0  0  0
    4.5530   -7.0979   -0.9478 H   0  0  0  0  0  0  0  0  0  0  0  0
    5.4253   -5.0379   -1.9077 H   0  0  0  0  0  0  0  0  0  0  0  0
    0.1919   -7.5720    0.6884 H   0  0  0  0  0  0  0  0  0  0  0  0
    1.2635   -6.7708    1.8778 H   0  0  0  0  0  0  0  0  0  0  0  0
    0.4298   -8.9277    2.6989 H   0  0  0  0  0  0  0  0  0  0  0  0
    2.2081   -8.8979    2.5650 H   0  0  0  0  0  0  0  0  0  0  0  0
    2.2433  -10.8767   -0.6331 H   0  0  0  0  0  0  0  0  0  0  0  0
    3.2748  -10.1039    0.5678 H   0  0  0  0  0  0  0  0  0  0  0  0
    1.2729   -8.7068   -1.3100 H   0  0  0  0  0  0  0  0  0  0  0  0
    3.0373   -8.7242   -1.4593 H   0  0  0  0  0  0  0  0  0  0  0  0
    1.5630  -10.7839    3.7174 H   0  0  0  0  0  0  0  0  0  0  0  0
    1.2187  -12.9796    4.7089 H   0  0  0  0  0  0  0  0  0  0  0  0
    0.5148  -14.8998    3.3107 H   0  0  0  0  0  0  0  0  0  0  0  0
    0.0855  -14.5895    0.9297 H   0  0  0  0  0  0  0  0  0  0  0  0
   -0.8022  -13.8639   -1.0408 H   0  0  0  0  0  0  0  0  0  0  0  0
    0.9877  -14.0320   -1.2071 H   0  0  0  0  0  0  0  0  0  0  0  0
    0.0751  -12.9806   -2.2950 H   0  0  0  0  0  0  0  0  0  0  0  0
   -1.4397   -4.8290    2.3378 H   0  0  0  0  0  0  0  0  0  0  0  0
   -1.9627   -4.5567    0.6751 H   0  0  0  0  0  0  0  0  0  0  0  0
   -2.6450   -2.6687    2.1619 H   0  0  0  0  0  0  0  0  0  0  0  0
   -1.5707   -2.1420    0.8667 H   0  0  0  0  0  0  0  0  0  0  0  0
   -0.7777   -2.6750    3.7690 H   0  0  0  0  0  0  0  0  0  0  0  0
   -0.8539   -1.1055    2.9709 H   0  0  0  0  0  0  0  0  0  0  0  0
    1.4918   -1.9904    3.1092 H   0  0  0  0  0  0  0  0  0  0  0  0
    0.9653   -1.7241    1.4450 H   0  0  0  0  0  0  0  0  0  0  0  0
    1.0271   -4.4137    2.9107 H   0  0  0  0  0  0  0  0  0  0  0  0
    2.1168   -3.9000    1.6324 H   0  0  0  0  0  0  0  0  0  0  0  0
  1  2  1  0  0  0  0
  1 41  1  0  0  0  0
  1 42  1  0  0  0  0
  1 43  1  0  0  0  0
  2  3  1  0  0  0  0
  2 44  1  0  0  0  0
  2 45  1  0  0  0  0
  3  4  2  0  0  0  0
  3  8  1  0  0  0  0
  4  5  1  0  0  0  0
  4 46  1  0  0  0  0
  5  6  2  0  0  0  0
  5 47  1  0  0  0  0
  6  7  1  0  0  0  0
  6 48  1  0  0  0  0
  7  8  2  0  0  0  0
  7 49  1  0  0  0  0
  8  9  1  0  0  0  0
  9 10  1  0  0  0  0
  9 50  1  0  0  0  0
 10 11  2  0  0  0  0
 10 12  1  0  0  0  0
 12 13  1  0  0  0  0
 12 51  1  0  0  0  0
 13 14  2  0  0  0  0
 13 18  1  0  0  0  0
 14 15  1  0  0  0  0
 14 52  1  0  0  0  0
 15 16  2  0  0  0  0
 15 33  1  0  0  0  0
 16 17  1  0  0  0  0
 16 19  1  0  0  0  0
 17 18  2  0  0  0  0
 17 53  1  0  0  0  0
 18 54  1  0  0  0  0
 19 20  1  0  0  0  0
 19 24  1  0  0  0  0
 20 21  1  0  0  0  0
 20 55  1  0  0  0  0
 20 56  1  0  0  0  0
 21 22  1  0  0  0  0
 21 57  1  0  0  0  0
 21 58  1  0  0  0  0
 22 23  1  0  0  0  0
 22 25  1  0  0  0  0
 23 24  1  0  0  0  0
 23 59  1  0  0  0  0
 23 60  1  0  0  0  0
 24 61  1  0  0  0  0
 24 62  1  0  0  0  0
 25 26  2  0  0  0  0
 25 30  1  0  0  0  0
 26 27  1  0  0  0  0
 26 63  1  0  0  0  0
 27 28  2  0  0  0  0
 27 64  1  0  0  0  0
 28 29  1  0  0  0  0
 28 65  1  0  0  0  0
 29 30  2  0  0  0  0
 29 66  1  0  0  0  0
 30 31  1  0  0  0  0
 31 32  1  0  0  0  0
 32 67  1  0  0  0  0
 32 68  1  0  0  0  0
 32 69  1  0  0  0  0
 33 34  2  0  0  0  0
 33 35  1  0  0  0  0
 35 36  1  0  0  0  0
 35 40  1  0  0  0  0
 36 37  1  0  0  0  0
 36 70  1  0  0  0  0
 36 71  1  0  0  0  0
 37 38  1  0  0  0  0
 37 72  1  0  0  0  0
 37 73  1  0  0  0  0
 38 39  1  0  0  0  0
 38 74  1  0  0  0  0
 38 75  1  0  0  0  0
 39 40  1  0  0  0  0
 39 76  1  0  0  0  0
 39 77  1  0  0  0  0
 40 78  1  0  0  0  0
 40 79  1  0  0  0  0
M  END
