
 OpenBabel10072620013D

 41 44  0  0  0  0  0  0  0  0999 V2000
    1.9890    1.9661    1.7793 C   0  0  0  0  0  0  0  0  0  0  0  0
    2.2419    1.2993    0.5461 O   0  0  0  0  0  0  0  0  0  0  0  0
    3.0997    1.9952   -0.2820 C   0  0  0  0  0  0  0  0  0  0  0  0
    3.6177    3.1766    0.1203 N   0  0  0  0  0  0  0  0  0  0  0  0
    4.4444    3.7993   -0.7522 C   0  0  0  0  0  0  0  0  0  0  0  0
    4.8065    3.2770   -1.9908 C   0  0  0  0  0  0  0  0  0  0  0  0
    4.2409    2.0695   -2.3819 C   0  0  0  0  0  0  0  0  0  0  0  0
    3.3737    1.4123   -1.5114 C   0  0  0  0  0  0  0  0  0  0  0  0
    5.6649    3.9942   -2.8903 N   0  0  0  0  0  0  0  0  0  0  0  0
    4.8153    4.9569   -4.0166 S   0  0  0  0  0  0  0  0  0  0  0  0
    3.9324    4.1252   -4.8026 O   0  0  0  0  0  0  0  0  0  0  0  0
    4.3458    6.1152   -3.2864 O   0  0  0  0  0  0  0  0  0  0  0  0
    6.1496    5.4708   -5.0737 C   0  0  0  0  0  0  0  0  0  0  0  0
    6.7926    4.5076   -5.8612 C   0  0  0  0  0  0  0  0  0  0  0  0
    7.8404    4.9337   -6.6604 C   0  0  0  0  0  0  0  0  0  0  0  0
    8.2406    6.2891   -6.6934 C   0  0  0  0  0  0  0  0  0  0  0  0
    7.5916    7.2384   -5.9199 C   0  0  0  0  0  0  0  0  0  0  0  0
    6.5358    6.8246   -5.1016 C   0  0  0  0  0  0  0  0  0  0  0  0
    9.3481    6.4251   -7.6156 C   0  0  0  0  0  0  0  0  0  0  0  0
   10.0791    7.5395   -7.9919 C   0  0  0  0  0  0  0  0  0  0  0  0
   11.1142    7.3743   -8.9177 C   0  0  0  0  0  0  0  0  0  0  0  0
   11.4047    6.1088   -9.4557 C   0  0  0  0  0  0  0  0  0  0  0  0
   10.6661    4.9848   -9.0789 C   0  0  0  0  0  0  0  0  0  0  0  0
    9.6443    5.1564   -8.1594 C   0  0  0  0  0  0  0  0  0  0  0  0
    8.7088    4.1085   -7.5905 C   0  0  0  0  0  0  0  0  0  0  0  0
    1.2772    1.3585    2.3480 H   0  0  0  0  0  0  0  0  0  0  0  0
    1.5305    2.9480    1.6159 H   0  0  0  0  0  0  0  0  0  0  0  0
    2.9044    2.0530    2.3753 H   0  0  0  0  0  0  0  0  0  0  0  0
    4.8146    4.7626   -0.4143 H   0  0  0  0  0  0  0  0  0  0  0  0
    4.4625    1.6416   -3.3550 H   0  0  0  0  0  0  0  0  0  0  0  0
    2.9154    0.4697   -1.7895 H   0  0  0  0  0  0  0  0  0  0  0  0
    6.3116    4.6036   -2.3854 H   0  0  0  0  0  0  0  0  0  0  0  0
    6.4822    3.4669   -5.8453 H   0  0  0  0  0  0  0  0  0  0  0  0
    7.8901    8.2814   -5.9441 H   0  0  0  0  0  0  0  0  0  0  0  0
    6.0169    7.5623   -4.4922 H   0  0  0  0  0  0  0  0  0  0  0  0
    9.8623    8.5212   -7.5846 H   0  0  0  0  0  0  0  0  0  0  0  0
   11.7016    8.2360   -9.2269 H   0  0  0  0  0  0  0  0  0  0  0  0
   12.2140    6.0066  -10.1755 H   0  0  0  0  0  0  0  0  0  0  0  0
   10.8908    4.0094   -9.4974 H   0  0  0  0  0  0  0  0  0  0  0  0
    9.2699    3.3567   -7.0276 H   0  0  0  0  0  0  0  0  0  0  0  0
    8.1069    3.6543   -8.3824 H   0  0  0  0  0  0  0  0  0  0  0  0
  1  2  1  0  0  0  0
  1 26  1  0  0  0  0
  1 27  1  0  0  0  0
  1 28  1  0  0  0  0
  2  3  1  0  0  0  0
  3  4  2  0  0  0  0
  3  8  1  0  0  0  0
  4  5  1  0  0  0  0
  5  6  2  0  0  0  0
  5 29  1  0  0  0  0
  6  7  1  0  0  0  0
  6  9  1  0  0  0  0
  7  8  2  0  0  0  0
  7 30  1  0  0  0  0
  8 31  1  0  0  0  0
  9 10  1  0  0  0  0
  9 32  1  0  0  0  0
 10 11  2  0  0  0  0
 10 12  2  0  0  0  0
 10 13  1  0  0  0  0
 13 14  2  0  0  0  0
 13 18  1  0  0  0  0
 14 15  1  0  0  0  0
 14 33  1  0  0  0  0
 15 16  2  0  0  0  0
 15 25  1  0  0  0  0
 16 17  1  0  0  0  0
 16 19  1  0  0  0  0
 17 18  2  0  0  0  0
 17 34  1  0  0  0  0
 18 35  1  0  0  0  0
 19 20  2  0  0  0  0
 19 24  1  0  0  0  0
 20 21  1  0  0  0  0
 20 36  1  0  0  0  0
 21 22  2  0  0  0  0
 21 37  1  0  0  0  0
 22 23  1  0  0  0  0
 22 38  1  0  0  0  0
 23 24  2  0  0  0  0
 23 39  1  0  0  0  0
 24 25  1  0  0  0  0
 25 40  1  0  0  0  0
 25 41  1  0  0  0  0
M  END
