
 OpenBabel10072619593D

 81 82  0  0  0  0  0  0  0  0999 V2000
    2.6524   16.8496   -4.8512 C   0  0  0  0  0  0  0  0  0  0  0  0
    3.9913   16.2903   -4.3998 C   0  0  0  0  0  0  0  0  0  0  0  0
    4.4454   15.1497   -5.3061 C   0  0  0  0  0  0  0  0  0  0  0  0
    5.7820   14.5730   -4.8423 C   0  0  0  0  0  0  0  0  0  0  0  0
    6.2005   13.4074   -5.7361 C   0  0  0  0  0  0  0  0  0  0  0  0
    7.5142   12.7851   -5.2692 C   0  0  0  0  0  0  0  0  0  0  0  0
    7.8635   11.5514   -6.1013 C   0  0  0  0  0  0  0  0  0  0  0  0
    9.2099   10.9629   -5.6779 C   0  0  0  0  0  0  0  0  0  0  0  0
    9.4923    9.6488   -6.4116 C   0  0  0  0  0  0  0  0  0  0  0  0
   10.9364    9.1922   -6.1952 C   0  0  0  0  0  0  0  0  0  0  0  0
   11.2095    7.8565   -6.8966 C   0  0  0  0  0  0  0  0  0  0  0  0
   12.6983    7.6394   -7.1635 C   0  0  0  0  0  0  0  0  0  0  0  0
   13.5388    7.4770   -5.8919 C   0  0  0  0  0  0  0  0  0  0  0  0
   15.0357    7.5139   -6.1988 C   0  0  0  0  0  0  0  0  0  0  0  0
   15.3328    8.8070   -6.7435 O   0  0  0  0  0  0  0  0  0  0  0  0
   16.5739    8.8090   -7.3327 C   0  0  0  0  0  0  0  0  0  0  0  0
   17.7020    8.8838   -6.5223 C   0  0  0  0  0  0  0  0  0  0  0  0
   18.9593    8.9679   -7.1121 C   0  0  0  0  0  0  0  0  0  0  0  0
   19.0673    8.9632   -8.5038 C   0  0  0  0  0  0  0  0  0  0  0  0
   17.9245    8.9055   -9.3124 C   0  0  0  0  0  0  0  0  0  0  0  0
   16.6466    8.8282   -8.7386 C   0  0  0  0  0  0  0  0  0  0  0  0
   15.3475    8.7103   -9.5053 C   0  0  0  0  0  0  0  0  0  0  0  0
   15.3599    8.8254  -10.9677 N   0  0  0  0  0  0  0  0  0  0  0  0
   14.1446    9.4069  -11.5522 C   0  0  0  0  0  0  0  0  0  0  0  0
   14.2850   10.7883  -12.1666 C   0  0  0  0  0  0  0  0  0  0  0  0
   15.4178   11.5860  -11.9233 C   0  0  0  0  0  0  0  0  0  0  0  0
   15.5446   12.8371  -12.5218 C   0  0  0  0  0  0  0  0  0  0  0  0
   14.5313   13.2920  -13.3455 C   0  0  0  0  0  0  0  0  0  0  0  0
   13.4098   12.5051  -13.5500 C   0  0  0  0  0  0  0  0  0  0  0  0
   13.2858   11.2850  -12.9593 N   0  3  0  0  0  0  0  0  0  0  0  0
   12.0343   10.5262  -13.1916 C   0  0  0  0  0  0  0  0  0  0  0  0
   15.9858    7.7869  -11.6669 C   0  0  0  0  0  0  0  0  0  0  0  0
   16.4258    6.7737  -11.1217 O   0  0  0  0  0  0  0  0  0  0  0  0
   16.1203    7.9644  -13.1571 C   0  0  0  0  0  0  0  0  0  0  0  0
    2.3402   17.6643   -4.1908 H   0  0  0  0  0  0  0  0  0  0  0  0
    1.8779   16.0759   -4.8284 H   0  0  0  0  0  0  0  0  0  0  0  0
    2.7161   17.2412   -5.8715 H   0  0  0  0  0  0  0  0  0  0  0  0
    3.9036   15.9327   -3.3672 H   0  0  0  0  0  0  0  0  0  0  0  0
    4.7401   17.0907   -4.4047 H   0  0  0  0  0  0  0  0  0  0  0  0
    4.5381   15.5109   -6.3378 H   0  0  0  0  0  0  0  0  0  0  0  0
    3.6853   14.3586   -5.3092 H   0  0  0  0  0  0  0  0  0  0  0  0
    5.6938   14.2312   -3.8037 H   0  0  0  0  0  0  0  0  0  0  0  0
    6.5508   15.3552   -4.8614 H   0  0  0  0  0  0  0  0  0  0  0  0
    6.3076   13.7591   -6.7696 H   0  0  0  0  0  0  0  0  0  0  0  0
    5.4105   12.6467   -5.7338 H   0  0  0  0  0  0  0  0  0  0  0  0
    7.4331   12.4994   -4.2134 H   0  0  0  0  0  0  0  0  0  0  0  0
    8.3185   13.5270   -5.3438 H   0  0  0  0  0  0  0  0  0  0  0  0
    7.9005   11.8205   -7.1649 H   0  0  0  0  0  0  0  0  0  0  0  0
    7.0753   10.7965   -5.9883 H   0  0  0  0  0  0  0  0  0  0  0  0
    9.2157   10.7798   -4.5952 H   0  0  0  0  0  0  0  0  0  0  0  0
   10.0037   11.6925   -5.8885 H   0  0  0  0  0  0  0  0  0  0  0  0
    9.3197    9.7803   -7.4891 H   0  0  0  0  0  0  0  0  0  0  0  0
    8.8003    8.8722   -6.0568 H   0  0  0  0  0  0  0  0  0  0  0  0
   11.1446    9.0929   -5.1222 H   0  0  0  0  0  0  0  0  0  0  0  0
   11.6150    9.9630   -6.5860 H   0  0  0  0  0  0  0  0  0  0  0  0
   10.6898    7.8360   -7.8626 H   0  0  0  0  0  0  0  0  0  0  0  0
   10.8059    7.0273   -6.3040 H   0  0  0  0  0  0  0  0  0  0  0  0
   13.0566    8.4857   -7.7577 H   0  0  0  0  0  0  0  0  0  0  0  0
   12.8255    6.7506   -7.7934 H   0  0  0  0  0  0  0  0  0  0  0  0
   13.2838    6.5268   -5.4095 H   0  0  0  0  0  0  0  0  0  0  0  0
   13.3102    8.2848   -5.1872 H   0  0  0  0  0  0  0  0  0  0  0  0
   15.2894    6.7172   -6.9113 H   0  0  0  0  0  0  0  0  0  0  0  0
   15.6041    7.3626   -5.2733 H   0  0  0  0  0  0  0  0  0  0  0  0
   17.6056    8.8802   -5.4387 H   0  0  0  0  0  0  0  0  0  0  0  0
   19.8469    9.0397   -6.4923 H   0  0  0  0  0  0  0  0  0  0  0  0
   20.0551    8.9897   -8.9611 H   0  0  0  0  0  0  0  0  0  0  0  0
   18.0631    8.8859  -10.3874 H   0  0  0  0  0  0  0  0  0  0  0  0
   14.7042    9.5217   -9.1398 H   0  0  0  0  0  0  0  0  0  0  0  0
   14.8699    7.7527   -9.2599 H   0  0  0  0  0  0  0  0  0  0  0  0
   13.3680    9.4716  -10.7798 H   0  0  0  0  0  0  0  0  0  0  0  0
   13.7602    8.7168  -12.3127 H   0  0  0  0  0  0  0  0  0  0  0  0
   16.2143   11.2353  -11.2689 H   0  0  0  0  0  0  0  0  0  0  0  0
   16.4302   13.4447  -12.3390 H   0  0  0  0  0  0  0  0  0  0  0  0
   14.6187   14.2676  -13.8287 H   0  0  0  0  0  0  0  0  0  0  0  0
   12.5921   12.8415  -14.1819 H   0  0  0  0  0  0  0  0  0  0  0  0
   11.2910   11.1653  -13.6740 H   0  0  0  0  0  0  0  0  0  0  0  0
   11.6392   10.2001  -12.2255 H   0  0  0  0  0  0  0  0  0  0  0  0
   12.2695    9.6753  -13.8361 H   0  0  0  0  0  0  0  0  0  0  0  0
   15.2771    7.4910  -13.6656 H   0  0  0  0  0  0  0  0  0  0  0  0
   17.0535    7.4968  -13.4885 H   0  0  0  0  0  0  0  0  0  0  0  0
   16.1719    9.0207  -13.4279 H   0  0  0  0  0  0  0  0  0  0  0  0
  1  2  1  0  0  0  0
  1 35  1  0  0  0  0
  1 36  1  0  0  0  0
  1 37  1  0  0  0  0
  2  3  1  0  0  0  0
  2 38  1  0  0  0  0
  2 39  1  0  0  0  0
  3  4  1  0  0  0  0
  3 40  1  0  0  0  0
  3 41  1  0  0  0  0
  4  5  1  0  0  0  0
  4 42  1  0  0  0  0
  4 43  1  0  0  0  0
  5  6  1  0  0  0  0
  5 44  1  0  0  0  0
  5 45  1  0  0  0  0
  6  7  1  0  0  0  0
  6 46  1  0  0  0  0
  6 47  1  0  0  0  0
  7  8  1  0  0  0  0
  7 48  1  0  0  0  0
  7 49  1  0  0  0  0
  8  9  1  0  0  0  0
  8 50  1  0  0  0  0
  8 51  1  0  0  0  0
  9 10  1  0  0  0  0
  9 52  1  0  0  0  0
  9 53  1  0  0  0  0
 10 11  1  0  0  0  0
 10 54  1  0  0  0  0
 10 55  1  0  0  0  0
 11 12  1  0  0  0  0
 11 56  1  0  0  0  0
 11 57  1  0  0  0  0
 12 13  1  0  0  0  0
 12 58  1  0  0  0  0
 12 59  1  0  0  0  0
 13 14  1  0  0  0  0
 13 60  1  0  0  0  0
 13 61  1  0  0  0  0
 14 15  1  0  0  0  0
 14 62  1  0  0  0  0
 14 63  1  0  0  0  0
 15 16  1  0  0  0  0
 16 17  2  0  0  0  0
 16 21  1  0  0  0  0
 17 18  1  0  0  0  0
 17 64  1  0  0  0  0
 18 19  2  0  0  0  0
 18 65  1  0  0  0  0
 19 20  1  0  0  0  0
 19 66  1  0  0  0  0
 20 21  2  0  0  0  0
 20 67  1  0  0  0  0
 21 22  1  0  0  0  0
 22 23  1  0  0  0  0
 22 68  1  0  0  0  0
 22 69  1  0  0  0  0
 23 24  1  0  0  0  0
 23 32  1  0  0  0  0
 24 25  1  0  0  0  0
 24 70  1  0  0  0  0
 24 71  1  0  0  0  0
 25 26  2  0  0  0  0
 25 30  1  0  0  0  0
 26 27  1  0  0  0  0
 26 72  1  0  0  0  0
 27 28  2  0  0  0  0
 27 73  1  0  0  0  0
 28 29  1  0  0  0  0
 28 74  1  0  0  0  0
 29 30  2  0  0  0  0
 29 75  1  0  0  0  0
 30 31  1  0  0  0  0
 31 76  1  0  0  0  0
 31 77  1  0  0  0  0
 31 78  1  0  0  0  0
 32 33  2  0  0  0  0
 32 34  1  0  0  0  0
 34 79  1  0  0  0  0
 34 80  1  0  0  0  0
 34 81  1  0  0  0  0
M  CHG  1  30   1
M  END
