
 OpenBabel10072620003D

 39 40  0  0  0  0  0  0  0  0999 V2000
    4.2246   -0.1179   -1.6126 C   0  0  0  0  0  0  0  0  0  0  0  0
    3.0386    0.1115   -0.2979 S   0  0  0  0  0  0  0  0  0  0  0  0
    1.9350    0.8852   -0.8258 O   0  0  0  0  0  0  0  0  0  0  0  0
    2.7798   -1.1660    0.3293 O   0  0  0  0  0  0  0  0  0  0  0  0
    3.7495    1.0706    0.8492 N   0  0  0  0  0  0  0  0  0  0  0  0
    5.3502    0.8566    1.2239 S   0  0  0  0  0  0  0  0  0  0  0  0
    5.5006   -0.4125    1.8926 O   0  0  0  0  0  0  0  0  0  0  0  0
    6.1691    1.2248    0.0906 O   0  0  0  0  0  0  0  0  0  0  0  0
    5.5907    2.1319    2.4418 C   0  0  0  0  0  0  0  0  0  0  0  0
    5.6400    3.4665    2.0351 C   0  0  0  0  0  0  0  0  0  0  0  0
    5.8838    4.4721    2.9906 C   0  0  0  0  0  0  0  0  0  0  0  0
    6.1217    4.1589    4.3489 C   0  0  0  0  0  0  0  0  0  0  0  0
    6.0197    2.8021    4.7191 C   0  0  0  0  0  0  0  0  0  0  0  0
    5.7715    1.7935    3.7810 C   0  0  0  0  0  0  0  0  0  0  0  0
    6.3188    5.1435    5.3534 N   0  0  0  0  0  0  0  0  0  0  0  0
    7.0799    5.0267    6.5429 C   0  0  0  0  0  0  0  0  0  0  0  0
    8.2396    4.2515    6.6279 C   0  0  0  0  0  0  0  0  0  0  0  0
    8.9943    4.2252    7.8061 C   0  0  0  0  0  0  0  0  0  0  0  0
    8.5987    4.9573    8.9261 C   0  0  0  0  0  0  0  0  0  0  0  0
    7.5008    5.8097    8.8056 C   0  0  0  0  0  0  0  0  0  0  0  0
    6.7416    5.8363    7.6309 C   0  0  0  0  0  0  0  0  0  0  0  0
    9.4263    5.0244   10.0520 N   0  0  0  0  0  0  0  0  0  0  0  0
    5.8865    5.8621    2.5215 N   0  3  0  0  0  0  0  0  0  0  0  0
    5.2883    6.1094    1.4646 O   0  0  0  0  0  0  0  0  0  0  0  0
    6.4832    6.7059    3.2062 O   0  5  0  0  0  0  0  0  0  0  0  0
    3.7195   -0.6600   -2.4158 H   0  0  0  0  0  0  0  0  0  0  0  0
    5.0629   -0.7160   -1.2546 H   0  0  0  0  0  0  0  0  0  0  0  0
    4.5408    0.8587   -1.9822 H   0  0  0  0  0  0  0  0  0  0  0  0
    3.1848    0.9874    1.6888 H   0  0  0  0  0  0  0  0  0  0  0  0
    5.4952    3.7183    0.9846 H   0  0  0  0  0  0  0  0  0  0  0  0
    6.1305    2.5147    5.7649 H   0  0  0  0  0  0  0  0  0  0  0  0
    5.7282    0.7571    4.1135 H   0  0  0  0  0  0  0  0  0  0  0  0
    6.5276    6.0642    4.9436 H   0  0  0  0  0  0  0  0  0  0  0  0
    8.5907    3.6842    5.7709 H   0  0  0  0  0  0  0  0  0  0  0  0
    9.9056    3.6342    7.8320 H   0  0  0  0  0  0  0  0  0  0  0  0
    7.2276    6.4703    9.6236 H   0  0  0  0  0  0  0  0  0  0  0  0
    5.8827    6.5002    7.5684 H   0  0  0  0  0  0  0  0  0  0  0  0
    9.9947    4.1953   10.1950 H   0  0  0  0  0  0  0  0  0  0  0  0
    8.9449    5.3099   10.8990 H   0  0  0  0  0  0  0  0  0  0  0  0
  1  2  1  0  0  0  0
  1 26  1  0  0  0  0
  1 27  1  0  0  0  0
  1 28  1  0  0  0  0
  2  3  2  0  0  0  0
  2  4  2  0  0  0  0
  2  5  1  0  0  0  0
  5  6  1  0  0  0  0
  5 29  1  0  0  0  0
  6  7  2  0  0  0  0
  6  8  2  0  0  0  0
  6  9  1  0  0  0  0
  9 10  2  0  0  0  0
  9 14  1  0  0  0  0
 10 11  1  0  0  0  0
 10 30  1  0  0  0  0
 11 12  2  0  0  0  0
 11 23  1  0  0  0  0
 12 13  1  0  0  0  0
 12 15  1  0  0  0  0
 13 14  2  0  0  0  0
 13 31  1  0  0  0  0
 14 32  1  0  0  0  0
 15 16  1  0  0  0  0
 15 33  1  0  0  0  0
 16 17  2  0  0  0  0
 16 21  1  0  0  0  0
 17 18  1  0  0  0  0
 17 34  1  0  0  0  0
 18 19  2  0  0  0  0
 18 35  1  0  0  0  0
 19 20  1  0  0  0  0
 19 22  1  0  0  0  0
 20 21  2  0  0  0  0
 20 36  1  0  0  0  0
 21 37  1  0  0  0  0
 22 38  1  0  0  0  0
 22 39  1  0  0  0  0
 23 24  2  0  0  0  0
 23 25  1  0  0  0  0
M  CHG  2  23   1  25  -1
M  END
