
 OpenBabel10072620013D

 35 36  0  0  0  0  0  0  0  0999 V2000
    2.5494    0.6766    0.1609 C   0  0  0  0  0  0  0  0  0  0  0  0
    1.2062    0.0090    0.1981 C   0  0  0  0  0  0  0  0  0  0  0  0
    0.1174    0.5413   -0.5051 C   0  0  0  0  0  0  0  0  0  0  0  0
   -1.1397   -0.0859   -0.4822 C   0  0  0  0  0  0  0  0  0  0  0  0
   -1.2917   -1.2632    0.2659 C   0  0  0  0  0  0  0  0  0  0  0  0
   -0.2097   -1.8001    0.9667 C   0  0  0  0  0  0  0  0  0  0  0  0
    1.0326   -1.1666    0.9340 C   0  0  0  0  0  0  0  0  0  0  0  0
   -2.5318   -1.9640    0.2775 N   0  0  0  0  0  0  0  0  0  0  0  0
   -2.7224   -3.2794   -0.7625 S   0  0  0  0  0  0  0  0  0  0  0  0
   -4.1434   -3.4990   -0.9214 O   0  0  0  0  0  0  0  0  0  0  0  0
   -1.8785   -3.0922   -1.9232 O   0  0  0  0  0  0  0  0  0  0  0  0
   -2.0840   -4.6493    0.1664 C   0  0  0  0  0  0  0  0  0  0  0  0
   -2.6470   -5.0308    1.3888 C   0  0  0  0  0  0  0  0  0  0  0  0
   -2.1224   -6.1377    2.0717 C   0  0  0  0  0  0  0  0  0  0  0  0
   -1.0508   -6.8631    1.5435 C   0  0  0  0  0  0  0  0  0  0  0  0
   -0.4938   -6.4758    0.3195 C   0  0  0  0  0  0  0  0  0  0  0  0
   -1.0043   -5.3713   -0.3746 C   0  0  0  0  0  0  0  0  0  0  0  0
    0.6338   -7.2376   -0.2375 N   0  3  0  0  0  0  0  0  0  0  0  0
    0.9959   -8.2536    0.3719 O   0  0  0  0  0  0  0  0  0  0  0  0
    1.1566   -6.8147   -1.2766 O   0  5  0  0  0  0  0  0  0  0  0  0
   -3.9564   -4.2082    2.1539 Cl  0  0  0  0  0  0  0  0  0  0  0  0
   -2.2723    0.5063   -1.2732 C   0  0  0  0  0  0  0  0  0  0  0  0
    2.5231    1.6006   -0.4257 H   0  0  0  0  0  0  0  0  0  0  0  0
    3.2891    0.0100   -0.2937 H   0  0  0  0  0  0  0  0  0  0  0  0
    2.8715    0.9336    1.1751 H   0  0  0  0  0  0  0  0  0  0  0  0
    0.2516    1.4532   -1.0849 H   0  0  0  0  0  0  0  0  0  0  0  0
   -0.3247   -2.7008    1.5606 H   0  0  0  0  0  0  0  0  0  0  0  0
    1.8663   -1.5949    1.4860 H   0  0  0  0  0  0  0  0  0  0  0  0
   -3.3875   -1.4121    0.3315 H   0  0  0  0  0  0  0  0  0  0  0  0
   -2.5502   -6.4469    3.0248 H   0  0  0  0  0  0  0  0  0  0  0  0
   -0.6674   -7.7204    2.0953 H   0  0  0  0  0  0  0  0  0  0  0  0
   -0.5739   -5.0751   -1.3313 H   0  0  0  0  0  0  0  0  0  0  0  0
   -1.9811    1.4502   -1.7463 H   0  0  0  0  0  0  0  0  0  0  0  0
   -3.1238    0.7204   -0.6194 H   0  0  0  0  0  0  0  0  0  0  0  0
   -2.5845   -0.1797   -2.0667 H   0  0  0  0  0  0  0  0  0  0  0  0
  1  2  1  0  0  0  0
  1 23  1  0  0  0  0
  1 24  1  0  0  0  0
  1 25  1  0  0  0  0
  2  3  2  0  0  0  0
  2  7  1  0  0  0  0
  3  4  1  0  0  0  0
  3 26  1  0  0  0  0
  4  5  2  0  0  0  0
  4 22  1  0  0  0  0
  5  6  1  0  0  0  0
  5  8  1  0  0  0  0
  6  7  2  0  0  0  0
  6 27  1  0  0  0  0
  7 28  1  0  0  0  0
  8  9  1  0  0  0  0
  8 29  1  0  0  0  0
  9 10  2  0  0  0  0
  9 11  2  0  0  0  0
  9 12  1  0  0  0  0
 12 13  2  0  0  0  0
 12 17  1  0  0  0  0
 13 14  1  0  0  0  0
 13 21  1  0  0  0  0
 14 15  2  0  0  0  0
 14 30  1  0  0  0  0
 15 16  1  0  0  0  0
 15 31  1  0  0  0  0
 16 17  2  0  0  0  0
 16 18  1  0  0  0  0
 17 32  1  0  0  0  0
 18 19  2  0  0  0  0
 18 20  1  0  0  0  0
 22 33  1  0  0  0  0
 22 34  1  0  0  0  0
 22 35  1  0  0  0  0
M  CHG  2  18   1  20  -1
M  END
