
 OpenBabel10072620063D

 90 89  0  0  1  0  0  0  0  0999 V2000
    0.8125   -0.7240   -0.9621 C   0  0  0  0  0  0  0  0  0  0  0  0
    2.3323   -0.7617   -0.9307 C   0  0  0  0  0  0  0  0  0  0  0  0
    2.9309    0.5872   -1.3268 C   0  0  0  0  0  0  0  0  0  0  0  0
    4.4602    0.5535   -1.3021 C   0  0  0  0  0  0  0  0  0  0  0  0
    5.0453    1.9066   -1.7070 C   0  0  0  0  0  0  0  0  0  0  0  0
    6.5752    1.8896   -1.7007 C   0  0  0  0  0  0  0  0  0  0  0  0
    7.1328    3.2512   -2.1158 C   0  0  0  0  0  0  0  0  0  0  0  0
    8.6623    3.2669   -2.1270 C   0  0  0  0  0  0  0  0  0  0  0  0
    9.1799    4.6445   -2.5422 C   0  0  0  0  0  0  0  0  0  0  0  0
   10.7078    4.7125   -2.5412 C   0  0  0  0  0  0  0  0  0  0  0  0
   11.1792    6.1117   -2.9416 C   0  0  0  0  0  0  0  0  0  0  0  0
   12.7023    6.2395   -2.9017 C   0  0  0  0  0  0  0  0  0  0  0  0
   13.1338    7.6630   -3.2645 C   0  0  0  0  0  0  0  0  0  0  0  0
   14.6516    7.8331   -3.1832 C   0  0  0  0  0  0  0  0  0  0  0  0
   15.1355    9.2217   -3.6396 C   0  0  3  0  0  0  0  0  0  0  0  0
   14.6578   10.3461   -2.7059 C   0  0  0  0  0  0  0  0  0  0  0  0
   15.1202   11.7322   -3.1741 C   0  0  0  0  0  0  0  0  0  0  0  0
   14.5598   12.8286   -2.2642 C   0  0  0  0  0  0  0  0  0  0  0  0
   14.9723   14.2225   -2.7404 C   0  0  0  0  0  0  0  0  0  0  0  0
   14.3887   15.3102   -1.8360 C   0  0  0  0  0  0  0  0  0  0  0  0
   14.7907   16.7086   -2.3095 C   0  0  0  0  0  0  0  0  0  0  0  0
   14.2216   17.7883   -1.3867 C   0  0  0  0  0  0  0  0  0  0  0  0
   14.6279   19.1915   -1.8414 C   0  0  0  0  0  0  0  0  0  0  0  0
   14.0776   20.2610   -0.8954 C   0  0  0  0  0  0  0  0  0  0  0  0
   14.4900   21.6679   -1.3338 C   0  0  0  0  0  0  0  0  0  0  0  0
   13.9467   22.7273   -0.3742 C   0  0  0  0  0  0  0  0  0  0  0  0
   14.3499   24.1317   -0.7952 C   0  0  0  0  0  0  0  0  0  0  0  0
   16.5797    9.2305   -3.6193 O   0  0  0  0  0  0  0  0  0  0  0  0
   17.1919    8.7861   -4.7447 C   0  0  0  0  0  0  0  0  0  0  0  0
   16.6531    8.3622   -5.7529 O   0  0  0  0  0  0  0  0  0  0  0  0
   18.6520    8.9086   -4.5444 C   0  0  0  0  0  0  0  0  0  0  0  0
   19.5077    8.5597   -5.5140 C   0  0  0  0  0  0  0  0  0  0  0  0
    0.4023   -1.6976   -0.6764 H   0  0  0  0  0  0  0  0  0  0  0  0
    0.4469   -0.4825   -1.9653 H   0  0  0  0  0  0  0  0  0  0  0  0
    0.4243    0.0260   -0.2656 H   0  0  0  0  0  0  0  0  0  0  0  0
    2.6870   -1.5420   -1.6139 H   0  0  0  0  0  0  0  0  0  0  0  0
    2.6652   -1.0362    0.0769 H   0  0  0  0  0  0  0  0  0  0  0  0
    2.5697    1.3641   -0.6419 H   0  0  0  0  0  0  0  0  0  0  0  0
    2.5869    0.8590   -2.3322 H   0  0  0  0  0  0  0  0  0  0  0  0
    4.8224   -0.2233   -1.9858 H   0  0  0  0  0  0  0  0  0  0  0  0
    4.8077    0.2883   -0.2965 H   0  0  0  0  0  0  0  0  0  0  0  0
    4.6857    2.6814   -1.0191 H   0  0  0  0  0  0  0  0  0  0  0  0
    4.6868    2.1749   -2.7083 H   0  0  0  0  0  0  0  0  0  0  0  0
    6.9391    1.1165   -2.3879 H   0  0  0  0  0  0  0  0  0  0  0  0
    6.9380    1.6315   -0.6986 H   0  0  0  0  0  0  0  0  0  0  0  0
    6.7647    4.0206   -1.4259 H   0  0  0  0  0  0  0  0  0  0  0  0
    6.7591    3.5102   -3.1140 H   0  0  0  0  0  0  0  0  0  0  0  0
    9.0366    2.5058   -2.8219 H   0  0  0  0  0  0  0  0  0  0  0  0
    9.0419    3.0125   -1.1303 H   0  0  0  0  0  0  0  0  0  0  0  0
    8.7825    5.4028   -1.8561 H   0  0  0  0  0  0  0  0  0  0  0  0
    8.8044    4.8888   -3.5437 H   0  0  0  0  0  0  0  0  0  0  0  0
   11.1141    3.9688   -3.2372 H   0  0  0  0  0  0  0  0  0  0  0  0
   11.0874    4.4663   -1.5423 H   0  0  0  0  0  0  0  0  0  0  0  0
   10.7356    6.8517   -2.2638 H   0  0  0  0  0  0  0  0  0  0  0  0
   10.8181    6.3448   -3.9509 H   0  0  0  0  0  0  0  0  0  0  0  0
   13.1536    5.5251   -3.6006 H   0  0  0  0  0  0  0  0  0  0  0  0
   13.0659    5.9889   -1.8979 H   0  0  0  0  0  0  0  0  0  0  0  0
   12.6402    8.3639   -2.5825 H   0  0  0  0  0  0  0  0  0  0  0  0
   12.7921    7.9018   -4.2789 H   0  0  0  0  0  0  0  0  0  0  0  0
   15.1340    7.0646   -3.8006 H   0  0  0  0  0  0  0  0  0  0  0  0
   14.9972    7.6426   -2.1589 H   0  0  0  0  0  0  0  0  0  0  0  0
   14.7707    9.4325   -4.6531 H   0  0  0  0  0  0  0  0  0  0  0  0
   15.0437   10.1723   -1.6937 H   0  0  0  0  0  0  0  0  0  0  0  0
   13.5645   10.3479   -2.6478 H   0  0  0  0  0  0  0  0  0  0  0  0
   14.7808   11.9008   -4.2034 H   0  0  0  0  0  0  0  0  0  0  0  0
   16.2156   11.7854   -3.1787 H   0  0  0  0  0  0  0  0  0  0  0  0
   14.9150   12.6693   -1.2384 H   0  0  0  0  0  0  0  0  0  0  0  0
   13.4650   12.7609   -2.2416 H   0  0  0  0  0  0  0  0  0  0  0  0
   14.6276   14.3766   -3.7703 H   0  0  0  0  0  0  0  0  0  0  0  0
   16.0664   14.2983   -2.7493 H   0  0  0  0  0  0  0  0  0  0  0  0
   14.7369   15.1561   -0.8071 H   0  0  0  0  0  0  0  0  0  0  0  0
   13.2947   15.2286   -1.8216 H   0  0  0  0  0  0  0  0  0  0  0  0
   14.4286   16.8694   -3.3325 H   0  0  0  0  0  0  0  0  0  0  0  0
   15.8844   16.7860   -2.3360 H   0  0  0  0  0  0  0  0  0  0  0  0
   14.5756   17.6183   -0.3625 H   0  0  0  0  0  0  0  0  0  0  0  0
   13.1277   17.7126   -1.3664 H   0  0  0  0  0  0  0  0  0  0  0  0
   14.2547   19.3707   -2.8567 H   0  0  0  0  0  0  0  0  0  0  0  0
   15.7214   19.2638   -1.8809 H   0  0  0  0  0  0  0  0  0  0  0  0
   14.4445   20.0731    0.1210 H   0  0  0  0  0  0  0  0  0  0  0  0
   12.9833   20.1932   -0.8610 H   0  0  0  0  0  0  0  0  0  0  0  0
   14.1179   21.8624   -2.3470 H   0  0  0  0  0  0  0  0  0  0  0  0
   15.5839   21.7343   -1.3730 H   0  0  0  0  0  0  0  0  0  0  0  0
   14.3197   22.5365    0.6387 H   0  0  0  0  0  0  0  0  0  0  0  0
   12.8530   22.6655   -0.3334 H   0  0  0  0  0  0  0  0  0  0  0  0
   15.4391   24.2397   -0.8138 H   0  0  0  0  0  0  0  0  0  0  0  0
   13.9484   24.8667   -0.0900 H   0  0  0  0  0  0  0  0  0  0  0  0
   13.9624   24.3698   -1.7910 H   0  0  0  0  0  0  0  0  0  0  0  0
   18.9976    9.2919   -3.5921 H   0  0  0  0  0  0  0  0  0  0  0  0
   19.1574    8.1775   -6.4698 H   0  0  0  0  0  0  0  0  0  0  0  0
   20.5790    8.6504   -5.3694 H   0  0  0  0  0  0  0  0  0  0  0  0
  1  2  1  0  0  0  0
  1 33  1  0  0  0  0
  1 34  1  0  0  0  0
  1 35  1  0  0  0  0
  2  3  1  0  0  0  0
  2 36  1  0  0  0  0
  2 37  1  0  0  0  0
  3  4  1  0  0  0  0
  3 38  1  0  0  0  0
  3 39  1  0  0  0  0
  4  5  1  0  0  0  0
  4 40  1  0  0  0  0
  4 41  1  0  0  0  0
  5  6  1  0  0  0  0
  5 42  1  0  0  0  0
  5 43  1  0  0  0  0
  6  7  1  0  0  0  0
  6 44  1  0  0  0  0
  6 45  1  0  0  0  0
  7  8  1  0  0  0  0
  7 46  1  0  0  0  0
  7 47  1  0  0  0  0
  8  9  1  0  0  0  0
  8 48  1  0  0  0  0
  8 49  1  0  0  0  0
  9 10  1  0  0  0  0
  9 50  1  0  0  0  0
  9 51  1  0  0  0  0
 10 11  1  0  0  0  0
 10 52  1  0  0  0  0
 10 53  1  0  0  0  0
 11 12  1  0  0  0  0
 11 54  1  0  0  0  0
 11 55  1  0  0  0  0
 12 13  1  0  0  0  0
 12 56  1  0  0  0  0
 12 57  1  0  0  0  0
 13 14  1  0  0  0  0
 13 58  1  0  0  0  0
 13 59  1  0  0  0  0
 14 15  1  0  0  0  0
 14 60  1  0  0  0  0
 14 61  1  0  0  0  0
 15 16  1  0  0  0  0
 15 28  1  0  0  0  0
 15 62  1  0  0  0  0
 16 17  1  0  0  0  0
 16 63  1  0  0  0  0
 16 64  1  0  0  0  0
 17 18  1  0  0  0  0
 17 65  1  0  0  0  0
 17 66  1  0  0  0  0
 18 19  1  0  0  0  0
 18 67  1  0  0  0  0
 18 68  1  0  0  0  0
 19 20  1  0  0  0  0
 19 69  1  0  0  0  0
 19 70  1  0  0  0  0
 20 21  1  0  0  0  0
 20 71  1  0  0  0  0
 20 72  1  0  0  0  0
 21 22  1  0  0  0  0
 21 73  1  0  0  0  0
 21 74  1  0  0  0  0
 22 23  1  0  0  0  0
 22 75  1  0  0  0  0
 22 76  1  0  0  0  0
 23 24  1  0  0  0  0
 23 77  1  0  0  0  0
 23 78  1  0  0  0  0
 24 25  1  0  0  0  0
 24 79  1  0  0  0  0
 24 80  1  0  0  0  0
 25 26  1  0  0  0  0
 25 81  1  0  0  0  0
 25 82  1  0  0  0  0
 26 27  1  0  0  0  0
 26 83  1  0  0  0  0
 26 84  1  0  0  0  0
 27 85  1  0  0  0  0
 27 86  1  0  0  0  0
 27 87  1  0  0  0  0
 28 29  1  0  0  0  0
 29 30  2  0  0  0  0
 29 31  1  0  0  0  0
 31 32  2  0  0  0  0
 31 88  1  0  0  0  0
 32 89  1  0  0  0  0
 32 90  1  0  0  0  0
M  END
