
 OpenBabel10072616333D

 40 42  0  0  0  0  0  0  0  0999 V2000
    2.5467    0.8859    0.7530 C   0  0  0  0  0  0  0  0  0  0  0  0
    1.0835    1.2091    0.7837 C   0  0  0  0  0  0  0  0  0  0  0  0
    0.3722    1.4662   -0.3927 C   0  0  0  0  0  0  0  0  0  0  0  0
   -0.9790    1.8242   -0.3416 C   0  0  0  0  0  0  0  0  0  0  0  0
   -1.6359    1.9237    0.8867 C   0  0  0  0  0  0  0  0  0  0  0  0
   -0.9243    1.6622    2.0621 C   0  0  0  0  0  0  0  0  0  0  0  0
    0.4239    1.3054    2.0117 C   0  0  0  0  0  0  0  0  0  0  0  0
   -3.3186    2.4831    1.0401 S   0  0  0  0  0  0  0  0  0  0  0  0
   -4.1684    1.5005   -0.2533 C   0  0  0  0  0  0  0  0  0  0  0  0
   -5.6464    1.6820   -0.1294 C   0  0  0  0  0  0  0  0  0  0  0  0
   -6.4750    0.8047    0.4019 N   0  0  0  0  0  0  0  0  0  0  0  0
   -7.7596    1.3020    0.4951 N   0  0  0  0  0  0  0  0  0  0  0  0
   -7.8627    2.5134   -0.0076 C   0  0  0  0  0  0  0  0  0  0  0  0
   -6.4162    3.1292   -0.6560 S   0  0  0  0  0  0  0  0  0  0  0  0
   -9.0212    3.2409    0.0753 N   0  0  0  0  0  0  0  0  0  0  0  0
   -9.2996    4.4267   -0.5694 C   0  0  0  0  0  0  0  0  0  0  0  0
   -8.6160    4.9201   -1.4571 O   0  0  0  0  0  0  0  0  0  0  0  0
  -10.4687    4.9824   -0.0701 N   0  0  0  0  0  0  0  0  0  0  0  0
  -11.1020    6.1843   -0.4757 C   0  0  0  0  0  0  0  0  0  0  0  0
  -12.1027    6.7310    0.3548 C   0  0  0  0  0  0  0  0  0  0  0  0
  -12.7396    7.9304    0.0303 C   0  0  0  0  0  0  0  0  0  0  0  0
  -12.3879    8.5911   -1.1405 C   0  0  0  0  0  0  0  0  0  0  0  0
  -11.4196    8.0586   -1.9893 C   0  0  0  0  0  0  0  0  0  0  0  0
  -10.7820    6.8569   -1.6581 C   0  0  0  0  0  0  0  0  0  0  0  0
  -13.1603   10.0719   -1.5481 Cl  0  0  0  0  0  0  0  0  0  0  0  0
  -12.5634    5.9469    1.8282 Cl  0  0  0  0  0  0  0  0  0  0  0  0
    2.9011    0.7112   -0.2670 H   0  0  0  0  0  0  0  0  0  0  0  0
    2.7466   -0.0195    1.3336 H   0  0  0  0  0  0  0  0  0  0  0  0
    3.1212    1.7160    1.1761 H   0  0  0  0  0  0  0  0  0  0  0  0
    0.8710    1.4110   -1.3574 H   0  0  0  0  0  0  0  0  0  0  0  0
   -1.4872    2.0590   -1.2722 H   0  0  0  0  0  0  0  0  0  0  0  0
   -1.4084    1.7512    3.0323 H   0  0  0  0  0  0  0  0  0  0  0  0
    0.9613    1.1199    2.9388 H   0  0  0  0  0  0  0  0  0  0  0  0
   -3.9200    0.4422   -0.1166 H   0  0  0  0  0  0  0  0  0  0  0  0
   -3.8325    1.8067   -1.2495 H   0  0  0  0  0  0  0  0  0  0  0  0
   -9.7647    2.7523    0.5461 H   0  0  0  0  0  0  0  0  0  0  0  0
  -10.7949    4.6115    0.8145 H   0  0  0  0  0  0  0  0  0  0  0  0
  -13.4895    8.3541    0.6945 H   0  0  0  0  0  0  0  0  0  0  0  0
  -11.1501    8.5719   -2.9095 H   0  0  0  0  0  0  0  0  0  0  0  0
  -10.0414    6.4700   -2.3527 H   0  0  0  0  0  0  0  0  0  0  0  0
  1  2  1  0  0  0  0
  1 27  1  0  0  0  0
  1 28  1  0  0  0  0
  1 29  1  0  0  0  0
  2  3  2  0  0  0  0
  2  7  1  0  0  0  0
  3  4  1  0  0  0  0
  3 30  1  0  0  0  0
  4  5  2  0  0  0  0
  4 31  1  0  0  0  0
  5  6  1  0  0  0  0
  5  8  1  0  0  0  0
  6  7  2  0  0  0  0
  6 32  1  0  0  0  0
  7 33  1  0  0  0  0
  8  9  1  0  0  0  0
  9 10  1  0  0  0  0
  9 34  1  0  0  0  0
  9 35  1  0  0  0  0
 10 11  2  0  0  0  0
 10 14  1  0  0  0  0
 11 12  1  0  0  0  0
 12 13  2  0  0  0  0
 13 14  1  0  0  0  0
 13 15  1  0  0  0  0
 15 16  1  0  0  0  0
 15 36  1  0  0  0  0
 16 17  2  0  0  0  0
 16 18  1  0  0  0  0
 18 19  1  0  0  0  0
 18 37  1  0  0  0  0
 19 20  2  0  0  0  0
 19 24  1  0  0  0  0
 20 21  1  0  0  0  0
 20 26  1  0  0  0  0
 21 22  2  0  0  0  0
 21 38  1  0  0  0  0
 22 23  1  0  0  0  0
 22 25  1  0  0  0  0
 23 24  2  0  0  0  0
 23 39  1  0  0  0  0
 24 40  1  0  0  0  0
M  END
