
 OpenBabel10072620093D

 43 45  0  0  0  0  0  0  0  0999 V2000
    1.6770   -0.4630    0.1471 C   0  0  0  0  0  0  0  0  0  0  0  0
    0.7361   -1.4699    0.3938 C   0  0  0  0  0  0  0  0  0  0  0  0
   -0.6248   -1.2167    0.2013 C   0  0  0  0  0  0  0  0  0  0  0  0
   -1.0176    0.0645   -0.1902 C   0  0  0  0  0  0  0  0  0  0  0  0
   -0.0815    1.0863   -0.4255 C   0  0  0  0  0  0  0  0  0  0  0  0
    1.2777    0.8199   -0.2558 C   0  0  0  0  0  0  0  0  0  0  0  0
    2.2983    1.7694   -0.4504 N   0  0  0  0  0  0  0  0  0  0  0  0
    2.1812    3.0924   -0.7804 C   0  0  0  0  0  0  0  0  0  0  0  0
    1.1400    3.7158   -0.9693 O   0  0  0  0  0  0  0  0  0  0  0  0
    3.3735    3.7733   -0.9168 N   0  0  0  0  0  0  0  0  0  0  0  0
    4.6607    3.2849   -0.8004 C   0  0  0  0  0  0  0  0  0  0  0  0
    4.9503    2.1264   -0.5280 O   0  0  0  0  0  0  0  0  0  0  0  0
    5.7409    4.2668   -1.0450 C   0  0  0  0  0  0  0  0  0  0  0  0
    6.8556    4.3477   -0.2032 C   0  0  0  0  0  0  0  0  0  0  0  0
    7.9257    5.2083   -0.4800 C   0  0  0  0  0  0  0  0  0  0  0  0
    7.8692    5.9969   -1.6256 C   0  0  0  0  0  0  0  0  0  0  0  0
    6.7628    5.9363   -2.4772 C   0  0  0  0  0  0  0  0  0  0  0  0
    5.7004    5.0686   -2.1954 C   0  0  0  0  0  0  0  0  0  0  0  0
    9.1739    7.0515   -2.0012 Cl  0  0  0  0  0  0  0  0  0  0  0  0
    6.9008    3.5921    1.0334 N   0  3  0  0  0  0  0  0  0  0  0  0
    5.9674    3.7754    1.8273 O   0  0  0  0  0  0  0  0  0  0  0  0
    7.8986    2.8912    1.2306 O   0  5  0  0  0  0  0  0  0  0  0  0
   -2.4277    0.3810   -0.3340 N   0  3  0  0  0  0  0  0  0  0  0  0
   -3.1113   -0.3620   -1.0490 O   0  0  0  0  0  0  0  0  0  0  0  0
   -2.8401    1.3911    0.2527 O   0  5  0  0  0  0  0  0  0  0  0  0
   -1.5539   -2.1765    0.5205 O   0  0  0  0  0  0  0  0  0  0  0  0
   -1.5034   -3.3609   -0.2045 C   0  0  0  0  0  0  0  0  0  0  0  0
   -2.0921   -4.4158    0.3863 N   0  0  0  0  0  0  0  0  0  0  0  0
   -2.0705   -5.5740   -0.3106 C   0  0  0  0  0  0  0  0  0  0  0  0
   -1.4896   -5.7073   -1.5515 C   0  0  0  0  0  0  0  0  0  0  0  0
   -0.9169   -4.5648   -2.0617 C   0  0  0  0  0  0  0  0  0  0  0  0
   -0.9057   -3.3787   -1.4139 N   0  0  0  0  0  0  0  0  0  0  0  0
   -1.4816   -7.1918   -2.3996 Cl  0  0  0  0  0  0  0  0  0  0  0  0
    2.7314   -0.6932    0.2937 H   0  0  0  0  0  0  0  0  0  0  0  0
    1.0747   -2.4440    0.7395 H   0  0  0  0  0  0  0  0  0  0  0  0
   -0.4330    2.0676   -0.7303 H   0  0  0  0  0  0  0  0  0  0  0  0
    3.2535    1.4547   -0.2854 H   0  0  0  0  0  0  0  0  0  0  0  0
    3.2189    4.7529   -1.1121 H   0  0  0  0  0  0  0  0  0  0  0  0
    8.7808    5.2704    0.1895 H   0  0  0  0  0  0  0  0  0  0  0  0
    6.7321    6.5500   -3.3763 H   0  0  0  0  0  0  0  0  0  0  0  0
    4.8705    5.0069   -2.8979 H   0  0  0  0  0  0  0  0  0  0  0  0
   -2.5524   -6.4157    0.1785 H   0  0  0  0  0  0  0  0  0  0  0  0
   -0.4351   -4.5601   -3.0355 H   0  0  0  0  0  0  0  0  0  0  0  0
  1  2  2  0  0  0  0
  1  6  1  0  0  0  0
  1 34  1  0  0  0  0
  2  3  1  0  0  0  0
  2 35  1  0  0  0  0
  3  4  2  0  0  0  0
  3 26  1  0  0  0  0
  4  5  1  0  0  0  0
  4 23  1  0  0  0  0
  5  6  2  0  0  0  0
  5 36  1  0  0  0  0
  6  7  1  0  0  0  0
  7  8  1  0  0  0  0
  7 37  1  0  0  0  0
  8  9  2  0  0  0  0
  8 10  1  0  0  0  0
 10 11  1  0  0  0  0
 10 38  1  0  0  0  0
 11 12  2  0  0  0  0
 11 13  1  0  0  0  0
 13 14  2  0  0  0  0
 13 18  1  0  0  0  0
 14 15  1  0  0  0  0
 14 20  1  0  0  0  0
 15 16  2  0  0  0  0
 15 39  1  0  0  0  0
 16 17  1  0  0  0  0
 16 19  1  0  0  0  0
 17 18  2  0  0  0  0
 17 40  1  0  0  0  0
 18 41  1  0  0  0  0
 20 21  2  0  0  0  0
 20 22  1  0  0  0  0
 23 24  2  0  0  0  0
 23 25  1  0  0  0  0
 26 27  1  0  0  0  0
 27 28  2  0  0  0  0
 27 32  1  0  0  0  0
 28 29  1  0  0  0  0
 29 30  2  0  0  0  0
 29 42  1  0  0  0  0
 30 31  1  0  0  0  0
 30 33  1  0  0  0  0
 31 32  2  0  0  0  0
 31 43  1  0  0  0  0
M  CHG  4  20   1  22  -1  23   1  25  -1
M  END
