
 OpenBabel10072620093D

 43 45  0  0  1  0  0  0  0  0999 V2000
   -0.7139    0.7141    0.8665 C   0  0  0  0  0  0  0  0  0  0  0  0
   -0.6694   -0.5089   -0.0148 C   0  0  0  0  0  0  0  0  0  0  0  0
    0.0639   -1.5000    0.8771 C   0  0  3  0  0  0  0  0  0  0  0  0
    0.9969   -0.7266    1.6551 O   0  0  0  0  0  0  0  0  0  0  0  0
    0.6351    0.6585    1.5512 C   0  0  0  0  0  0  0  0  0  0  0  0
    0.7909   -2.6012    0.1076 C   0  0  0  0  0  0  0  0  0  0  0  0
   -0.1647   -3.3641   -0.6289 O   0  0  0  0  0  0  0  0  0  0  0  0
    0.3165   -4.3879   -1.3956 C   0  0  0  0  0  0  0  0  0  0  0  0
    1.6542   -4.7448   -1.5489 C   0  0  0  0  0  0  0  0  0  0  0  0
    2.0120   -5.8172   -2.3796 C   0  0  0  0  0  0  0  0  0  0  0  0
    1.0384   -6.5495   -3.0589 C   0  0  0  0  0  0  0  0  0  0  0  0
   -0.3036   -6.1873   -2.9011 C   0  0  0  0  0  0  0  0  0  0  0  0
   -0.6590   -5.1150   -2.0769 C   0  0  0  0  0  0  0  0  0  0  0  0
    1.3161   -7.6311   -3.9202 N   0  0  0  0  0  0  0  0  0  0  0  0
    2.5453   -8.2289   -4.1643 C   0  0  0  0  0  0  0  0  0  0  0  0
    3.5871   -7.9496   -3.5870 O   0  0  0  0  0  0  0  0  0  0  0  0
    2.4197   -9.1854   -5.1629 N   0  0  0  0  0  0  0  0  0  0  0  0
    3.4118  -10.0669   -5.6414 C   0  0  0  0  0  0  0  0  0  0  0  0
    4.6728  -10.2154   -5.0616 C   0  0  0  0  0  0  0  0  0  0  0  0
    5.5963  -11.1202   -5.5954 C   0  0  0  0  0  0  0  0  0  0  0  0
    5.2662  -11.8863   -6.7105 C   0  0  0  0  0  0  0  0  0  0  0  0
    4.0091  -11.7519   -7.2923 C   0  0  0  0  0  0  0  0  0  0  0  0
    3.0862  -10.8482   -6.7590 C   0  0  0  0  0  0  0  0  0  0  0  0
   -1.5145    0.6078    1.6081 H   0  0  0  0  0  0  0  0  0  0  0  0
   -0.8759    1.6464    0.3194 H   0  0  0  0  0  0  0  0  0  0  0  0
   -0.0890   -0.2897   -0.9192 H   0  0  0  0  0  0  0  0  0  0  0  0
   -1.6598   -0.8593   -0.3187 H   0  0  0  0  0  0  0  0  0  0  0  0
   -0.6519   -1.9521    1.5757 H   0  0  0  0  0  0  0  0  0  0  0  0
    1.4043    1.1586    0.9532 H   0  0  0  0  0  0  0  0  0  0  0  0
    0.6193    1.1104    2.5469 H   0  0  0  0  0  0  0  0  0  0  0  0
    1.3238   -3.2414    0.8221 H   0  0  0  0  0  0  0  0  0  0  0  0
    1.5284   -2.1459   -0.5658 H   0  0  0  0  0  0  0  0  0  0  0  0
    2.4536   -4.2136   -1.0423 H   0  0  0  0  0  0  0  0  0  0  0  0
    3.0683   -6.0502   -2.4740 H   0  0  0  0  0  0  0  0  0  0  0  0
   -1.0939   -6.7283   -3.4132 H   0  0  0  0  0  0  0  0  0  0  0  0
   -1.7066   -4.8459   -1.9663 H   0  0  0  0  0  0  0  0  0  0  0  0
    0.5140   -8.0848   -4.3265 H   0  0  0  0  0  0  0  0  0  0  0  0
    1.5593   -9.1711   -5.6862 H   0  0  0  0  0  0  0  0  0  0  0  0
    4.9697   -9.6455   -4.1865 H   0  0  0  0  0  0  0  0  0  0  0  0
    6.5752  -11.2235   -5.1334 H   0  0  0  0  0  0  0  0  0  0  0  0
    5.9873  -12.5874   -7.1223 H   0  0  0  0  0  0  0  0  0  0  0  0
    3.7460  -12.3492   -8.1612 H   0  0  0  0  0  0  0  0  0  0  0  0
    2.1128  -10.7636   -7.2340 H   0  0  0  0  0  0  0  0  0  0  0  0
  1  2  1  0  0  0  0
  1  5  1  0  0  0  0
  1 24  1  0  0  0  0
  1 25  1  0  0  0  0
  2  3  1  0  0  0  0
  2 26  1  0  0  0  0
  2 27  1  0  0  0  0
  3  4  1  0  0  0  0
  3  6  1  0  0  0  0
  3 28  1  0  0  0  0
  4  5  1  0  0  0  0
  5 29  1  0  0  0  0
  5 30  1  0  0  0  0
  6  7  1  0  0  0  0
  6 31  1  0  0  0  0
  6 32  1  0  0  0  0
  7  8  1  0  0  0  0
  8  9  2  0  0  0  0
  8 13  1  0  0  0  0
  9 10  1  0  0  0  0
  9 33  1  0  0  0  0
 10 11  2  0  0  0  0
 10 34  1  0  0  0  0
 11 12  1  0  0  0  0
 11 14  1  0  0  0  0
 12 13  2  0  0  0  0
 12 35  1  0  0  0  0
 13 36  1  0  0  0  0
 14 15  1  0  0  0  0
 14 37  1  0  0  0  0
 15 16  2  0  0  0  0
 15 17  1  0  0  0  0
 17 18  1  0  0  0  0
 17 38  1  0  0  0  0
 18 19  2  0  0  0  0
 18 23  1  0  0  0  0
 19 20  1  0  0  0  0
 19 39  1  0  0  0  0
 20 21  2  0  0  0  0
 20 40  1  0  0  0  0
 21 22  1  0  0  0  0
 21 41  1  0  0  0  0
 22 23  2  0  0  0  0
 22 42  1  0  0  0  0
 23 43  1  0  0  0  0
M  END
