
 OpenBabel10072616333D

 42 46  0  0  0  0  0  0  0  0999 V2000
    1.0576    0.1219   -0.4693 C   0  0  0  0  0  0  0  0  0  0  0  0
    2.4551   -0.1741   -0.2591 N   0  0  0  0  0  0  0  0  0  0  0  0
    3.0648   -1.4010   -0.3816 C   0  0  0  0  0  0  0  0  0  0  0  0
    4.3784   -1.1516   -0.1116 C   0  0  0  0  0  0  0  0  0  0  0  0
    4.4727    0.2206    0.1688 C   0  0  0  0  0  0  0  0  0  0  0  0
    3.3007    0.8340    0.0820 N   0  0  0  0  0  0  0  0  0  0  0  0
    5.6658    0.8869    0.5188 N   0  0  0  0  0  0  0  0  0  0  0  0
    6.7196    0.1143    0.5466 C   0  0  0  0  0  0  0  0  0  0  0  0
    6.7193   -1.2628    0.2660 N   0  0  0  0  0  0  0  0  0  0  0  0
    5.5901   -1.9509   -0.0559 C   0  0  0  0  0  0  0  0  0  0  0  0
    5.8574   -3.2188   -0.2251 N   0  0  0  0  0  0  0  0  0  0  0  0
    7.2212   -3.2638    0.0296 C   0  0  0  0  0  0  0  0  0  0  0  0
    7.7906   -2.0765    0.3181 N   0  0  0  0  0  0  0  0  0  0  0  0
    7.9991   -4.5375    0.0110 C   0  0  0  0  0  0  0  0  0  0  0  0
    7.4896   -5.7914   -0.2699 C   0  0  0  0  0  0  0  0  0  0  0  0
    8.5673   -6.7046   -0.1622 C   0  0  0  0  0  0  0  0  0  0  0  0
    9.6682   -5.9558    0.1788 C   0  0  0  0  0  0  0  0  0  0  0  0
    9.3367   -4.6439    0.2836 O   0  0  0  0  0  0  0  0  0  0  0  0
    7.9950    0.5351    0.8708 N   0  0  0  0  0  0  0  0  0  0  0  0
    8.4463    1.7568    1.3246 C   0  0  0  0  0  0  0  0  0  0  0  0
    9.6435    1.8732    1.5638 O   0  0  0  0  0  0  0  0  0  0  0  0
    7.4744    2.7081    1.4871 N   0  0  0  0  0  0  0  0  0  0  0  0
    7.6087    4.0024    2.0186 C   0  0  0  0  0  0  0  0  0  0  0  0
    8.8165    4.5361    2.4724 C   0  0  0  0  0  0  0  0  0  0  0  0
    8.8636    5.8263    3.0071 C   0  0  0  0  0  0  0  0  0  0  0  0
    7.7033    6.5914    3.0909 C   0  0  0  0  0  0  0  0  0  0  0  0
    6.4935    6.0678    2.6404 C   0  0  0  0  0  0  0  0  0  0  0  0
    6.4463    4.7779    2.1072 C   0  0  0  0  0  0  0  0  0  0  0  0
    0.5157   -0.8036   -0.6781 H   0  0  0  0  0  0  0  0  0  0  0  0
    0.9772    0.8030   -1.3203 H   0  0  0  0  0  0  0  0  0  0  0  0
    0.6627    0.5889    0.4364 H   0  0  0  0  0  0  0  0  0  0  0  0
    2.5230   -2.2987   -0.6456 H   0  0  0  0  0  0  0  0  0  0  0  0
    6.4610   -6.0123   -0.5217 H   0  0  0  0  0  0  0  0  0  0  0  0
    8.5445   -7.7748   -0.3128 H   0  0  0  0  0  0  0  0  0  0  0  0
   10.7056   -6.1924    0.3733 H   0  0  0  0  0  0  0  0  0  0  0  0
    8.7393   -0.1582    0.8253 H   0  0  0  0  0  0  0  0  0  0  0  0
    6.5373    2.4339    1.1992 H   0  0  0  0  0  0  0  0  0  0  0  0
    9.7425    3.9726    2.4284 H   0  0  0  0  0  0  0  0  0  0  0  0
    9.8120    6.2268    3.3565 H   0  0  0  0  0  0  0  0  0  0  0  0
    7.7422    7.5919    3.5124 H   0  0  0  0  0  0  0  0  0  0  0  0
    5.5856    6.6609    2.7063 H   0  0  0  0  0  0  0  0  0  0  0  0
    5.4899    4.3853    1.7674 H   0  0  0  0  0  0  0  0  0  0  0  0
  1  2  1  0  0  0  0
  1 29  1  0  0  0  0
  1 30  1  0  0  0  0
  1 31  1  0  0  0  0
  2  3  1  0  0  0  0
  2  6  1  0  0  0  0
  3  4  2  0  0  0  0
  3 32  1  0  0  0  0
  4  5  1  0  0  0  0
  4 10  1  0  0  0  0
  5  6  2  0  0  0  0
  5  7  1  0  0  0  0
  7  8  2  0  0  0  0
  8  9  1  0  0  0  0
  8 19  1  0  0  0  0
  9 10  1  0  0  0  0
  9 13  1  0  0  0  0
 10 11  2  0  0  0  0
 11 12  1  0  0  0  0
 12 13  2  0  0  0  0
 12 14  1  0  0  0  0
 14 15  2  0  0  0  0
 14 18  1  0  0  0  0
 15 16  1  0  0  0  0
 15 33  1  0  0  0  0
 16 17  2  0  0  0  0
 16 34  1  0  0  0  0
 17 18  1  0  0  0  0
 17 35  1  0  0  0  0
 19 20  1  0  0  0  0
 19 36  1  0  0  0  0
 20 21  2  0  0  0  0
 20 22  1  0  0  0  0
 22 23  1  0  0  0  0
 22 37  1  0  0  0  0
 23 24  2  0  0  0  0
 23 28  1  0  0  0  0
 24 25  1  0  0  0  0
 24 38  1  0  0  0  0
 25 26  2  0  0  0  0
 25 39  1  0  0  0  0
 26 27  1  0  0  0  0
 26 40  1  0  0  0  0
 27 28  2  0  0  0  0
 27 41  1  0  0  0  0
 28 42  1  0  0  0  0
M  END
