
 OpenBabel10072619573D

 31 33  0  0  1  0  0  0  0  0999 V2000
   -1.1665   -0.8313    0.6976 C   0  0  0  0  0  0  0  0  0  0  0  0
   -1.5216    0.4895    0.0009 C   0  0  0  0  0  0  0  0  0  0  0  0
   -0.2539    0.7966   -0.8164 C   0  0  2  0  0  0  0  0  0  0  0  0
    0.1544   -0.6045   -1.2774 C   0  0  0  0  0  0  0  0  0  0  0  0
    0.2347   -1.1483    0.1463 C   0  0  1  0  0  0  0  0  0  0  0  0
    1.2495   -0.1866    0.7882 C   0  0  0  0  0  0  0  0  0  0  0  0
    0.8788    1.1778    0.1639 C   0  0  1  0  0  0  0  0  0  0  0  0
    2.0429    1.7303   -0.5523 N   0  0  0  0  0  0  0  0  0  0  0  0
    2.0485    3.3831   -0.9055 S   0  0  0  0  0  0  0  0  0  0  0  0
    3.3286    3.6820   -1.5031 O   0  0  0  0  0  0  0  0  0  0  0  0
    0.7979    3.7334   -1.5405 O   0  0  0  0  0  0  0  0  0  0  0  0
    2.0316    4.2735    0.6358 C   0  0  0  0  0  0  0  0  0  0  0  0
    1.2273    5.2956    1.1026 C   0  0  0  0  0  0  0  0  0  0  0  0
    1.5696    5.6894    2.4286 C   0  0  0  0  0  0  0  0  0  0  0  0
    2.6188    4.9500    2.9302 C   0  0  0  0  0  0  0  0  0  0  0  0
    3.1957    3.8019    1.7991 S   0  0  0  0  0  0  0  0  0  0  0  0
   -1.8856   -1.6105    0.4228 H   0  0  0  0  0  0  0  0  0  0  0  0
   -1.1733   -0.7323    1.7878 H   0  0  0  0  0  0  0  0  0  0  0  0
   -1.7696    1.2817    0.7148 H   0  0  0  0  0  0  0  0  0  0  0  0
   -2.3829    0.3443   -0.6617 H   0  0  0  0  0  0  0  0  0  0  0  0
   -0.4323    1.5035   -1.6272 H   0  0  0  0  0  0  0  0  0  0  0  0
    1.1131   -0.6270   -1.8068 H   0  0  0  0  0  0  0  0  0  0  0  0
   -0.6098   -1.0999   -1.8859 H   0  0  0  0  0  0  0  0  0  0  0  0
    0.5143   -2.1994    0.2346 H   0  0  0  0  0  0  0  0  0  0  0  0
    2.2719   -0.4964    0.5430 H   0  0  0  0  0  0  0  0  0  0  0  0
    1.1625   -0.1648    1.8798 H   0  0  0  0  0  0  0  0  0  0  0  0
    0.5469    1.8673    0.9468 H   0  0  0  0  0  0  0  0  0  0  0  0
    2.9583    1.4546   -0.1966 H   0  0  0  0  0  0  0  0  0  0  0  0
    0.4298    5.7321    0.5099 H   0  0  0  0  0  0  0  0  0  0  0  0
    1.0695    6.4714    2.9874 H   0  0  0  0  0  0  0  0  0  0  0  0
    3.0791    5.0320    3.9062 H   0  0  0  0  0  0  0  0  0  0  0  0
  1  2  1  0  0  0  0
  1  5  1  0  0  0  0
  1 17  1  0  0  0  0
  1 18  1  0  0  0  0
  2  3  1  0  0  0  0
  2 19  1  0  0  0  0
  2 20  1  0  0  0  0
  3  4  1  0  0  0  0
  3  7  1  0  0  0  0
  3 21  1  6  0  0  0
  4  5  1  0  0  0  0
  4 22  1  0  0  0  0
  4 23  1  0  0  0  0
  5  6  1  0  0  0  0
  5 24  1  1  0  0  0
  6  7  1  0  0  0  0
  6 25  1  0  0  0  0
  6 26  1  0  0  0  0
  7  8  1  0  0  0  0
  7 27  1  1  0  0  0
  8  9  1  0  0  0  0
  8 28  1  0  0  0  0
  9 10  2  0  0  0  0
  9 11  2  0  0  0  0
  9 12  1  0  0  0  0
 12 13  2  0  0  0  0
 12 16  1  0  0  0  0
 13 14  1  0  0  0  0
 13 29  1  0  0  0  0
 14 15  2  0  0  0  0
 14 30  1  0  0  0  0
 15 16  1  0  0  0  0
 15 31  1  0  0  0  0
M  END
