
 OpenBabel10072619573D

 25 26  0  0  0  0  0  0  0  0999 V2000
   -0.0155   -1.1843    1.1504 C   0  0  0  0  0  0  0  0  0  0  0  0
   -1.3347   -0.5790    1.5415 C   0  0  0  0  0  0  0  0  0  0  0  0
   -0.9392   -0.6467    0.0873 C   0  0  0  0  0  0  0  0  0  0  0  0
   -1.6410   -1.5746   -0.8514 C   0  0  0  0  0  0  0  0  0  0  0  0
   -2.8831   -0.9665   -1.2707 N   0  0  0  0  0  0  0  0  0  0  0  0
   -3.6432   -1.5815   -2.2460 C   0  0  0  0  0  0  0  0  0  0  0  0
   -3.2832   -2.6015   -2.8194 O   0  0  0  0  0  0  0  0  0  0  0  0
   -4.8103   -0.8879   -2.4652 N   0  0  0  0  0  0  0  0  0  0  0  0
   -5.8113   -1.3241   -3.2969 C   0  0  0  0  0  0  0  0  0  0  0  0
   -6.0175   -2.4888   -3.9936 C   0  0  0  0  0  0  0  0  0  0  0  0
   -7.2531   -2.4604   -4.7091 C   0  0  0  0  0  0  0  0  0  0  0  0
   -7.9330   -1.2758   -4.5211 C   0  0  0  0  0  0  0  0  0  0  0  0
   -7.0737   -0.2026   -3.4989 S   0  0  0  0  0  0  0  0  0  0  0  0
    0.0985   -2.2578    1.2575 H   0  0  0  0  0  0  0  0  0  0  0  0
    0.8862   -0.6211    1.3646 H   0  0  0  0  0  0  0  0  0  0  0  0
   -1.3241    0.3899    2.0282 H   0  0  0  0  0  0  0  0  0  0  0  0
   -2.1019   -1.2518    1.9091 H   0  0  0  0  0  0  0  0  0  0  0  0
   -0.6420    0.2742   -0.4054 H   0  0  0  0  0  0  0  0  0  0  0  0
   -1.8704   -2.5382   -0.3810 H   0  0  0  0  0  0  0  0  0  0  0  0
   -1.0224   -1.7677   -1.7347 H   0  0  0  0  0  0  0  0  0  0  0  0
   -3.4115   -0.4980   -0.5504 H   0  0  0  0  0  0  0  0  0  0  0  0
   -4.8862    0.0539   -2.1136 H   0  0  0  0  0  0  0  0  0  0  0  0
   -5.3334   -3.3297   -3.9949 H   0  0  0  0  0  0  0  0  0  0  0  0
   -7.6205   -3.2716   -5.3261 H   0  0  0  0  0  0  0  0  0  0  0  0
   -8.8914   -0.9914   -4.9347 H   0  0  0  0  0  0  0  0  0  0  0  0
  1  2  1  0  0  0  0
  1  3  1  0  0  0  0
  1 14  1  0  0  0  0
  1 15  1  0  0  0  0
  2  3  1  0  0  0  0
  2 16  1  0  0  0  0
  2 17  1  0  0  0  0
  3  4  1  0  0  0  0
  3 18  1  0  0  0  0
  4  5  1  0  0  0  0
  4 19  1  0  0  0  0
  4 20  1  0  0  0  0
  5  6  1  0  0  0  0
  5 21  1  0  0  0  0
  6  7  2  0  0  0  0
  6  8  1  0  0  0  0
  8  9  1  0  0  0  0
  8 22  1  0  0  0  0
  9 10  2  0  0  0  0
  9 13  1  0  0  0  0
 10 11  1  0  0  0  0
 10 23  1  0  0  0  0
 11 12  2  0  0  0  0
 11 24  1  0  0  0  0
 12 13  1  0  0  0  0
 12 25  1  0  0  0  0
M  END
