
 OpenBabel10072620213D

 30 31  0  0  0  0  0  0  0  0999 V2000
    2.7860    0.3550   -0.5657 C   0  0  0  0  0  0  0  0  0  0  0  0
    1.3493    0.0706   -0.2207 C   0  0  0  0  0  0  0  0  0  0  0  0
    0.3622    1.0736   -0.2981 C   0  0  0  0  0  0  0  0  0  0  0  0
   -0.9783    0.7903    0.0264 C   0  0  0  0  0  0  0  0  0  0  0  0
   -1.3134   -0.5142    0.4238 C   0  0  0  0  0  0  0  0  0  0  0  0
   -0.3414   -1.5093    0.5065 C   0  0  0  0  0  0  0  0  0  0  0  0
    0.9813   -1.2210    0.1814 C   0  0  0  0  0  0  0  0  0  0  0  0
   -2.0846    1.8017   -0.0937 C   0  0  0  0  0  0  0  0  0  0  0  0
    0.7568    2.3733   -0.7614 N   0  0  0  0  0  0  0  0  0  0  0  0
    0.5306    2.6591   -2.4222 S   0  0  0  0  0  0  0  0  0  0  0  0
    0.7946    1.4640   -3.1924 O   0  0  0  0  0  0  0  0  0  0  0  0
   -0.6915    3.4198   -2.5677 O   0  0  0  0  0  0  0  0  0  0  0  0
    1.8247    3.7812   -2.9063 C   0  0  0  0  0  0  0  0  0  0  0  0
    2.7778    3.7208   -3.9075 C   0  0  0  0  0  0  0  0  0  0  0  0
    3.6302    4.8642   -3.9123 C   0  0  0  0  0  0  0  0  0  0  0  0
    3.2869    5.7395   -2.9131 C   0  0  0  0  0  0  0  0  0  0  0  0
    1.9756    5.2137   -1.9780 S   0  0  0  0  0  0  0  0  0  0  0  0
    4.1808    7.3564   -2.6025 Br  0  0  0  0  0  0  0  0  0  0  0  0
    2.8948    0.5404   -1.6386 H   0  0  0  0  0  0  0  0  0  0  0  0
    3.4357   -0.4875   -0.3049 H   0  0  0  0  0  0  0  0  0  0  0  0
    3.1467    1.2265   -0.0088 H   0  0  0  0  0  0  0  0  0  0  0  0
   -2.3441   -0.7670    0.6665 H   0  0  0  0  0  0  0  0  0  0  0  0
   -0.6170   -2.5137    0.8187 H   0  0  0  0  0  0  0  0  0  0  0  0
    1.7245   -2.0130    0.2426 H   0  0  0  0  0  0  0  0  0  0  0  0
   -1.7581    2.7934    0.2321 H   0  0  0  0  0  0  0  0  0  0  0  0
   -2.9337    1.5296    0.5437 H   0  0  0  0  0  0  0  0  0  0  0  0
   -2.4363    1.8523   -1.1288 H   0  0  0  0  0  0  0  0  0  0  0  0
    0.3033    3.1294   -0.2487 H   0  0  0  0  0  0  0  0  0  0  0  0
    2.8518    2.8867   -4.5962 H   0  0  0  0  0  0  0  0  0  0  0  0
    4.4426    5.0202   -4.6118 H   0  0  0  0  0  0  0  0  0  0  0  0
  1  2  1  0  0  0  0
  1 19  1  0  0  0  0
  1 20  1  0  0  0  0
  1 21  1  0  0  0  0
  2  3  2  0  0  0  0
  2  7  1  0  0  0  0
  3  4  1  0  0  0  0
  3  9  1  0  0  0  0
  4  5  2  0  0  0  0
  4  8  1  0  0  0  0
  5  6  1  0  0  0  0
  5 22  1  0  0  0  0
  6  7  2  0  0  0  0
  6 23  1  0  0  0  0
  7 24  1  0  0  0  0
  8 25  1  0  0  0  0
  8 26  1  0  0  0  0
  8 27  1  0  0  0  0
  9 10  1  0  0  0  0
  9 28  1  0  0  0  0
 10 11  2  0  0  0  0
 10 12  2  0  0  0  0
 10 13  1  0  0  0  0
 13 14  2  0  0  0  0
 13 17  1  0  0  0  0
 14 15  1  0  0  0  0
 14 29  1  0  0  0  0
 15 16  2  0  0  0  0
 15 30  1  0  0  0  0
 16 17  1  0  0  0  0
 16 18  1  0  0  0  0
M  END
