
 OpenBabel10072619483D

 55 59  0  0  0  0  0  0  0  0999 V2000
    0.8829    0.0981   -0.7447 C   0  0  0  0  0  0  0  0  0  0  0  0
    2.3814    0.1441   -0.5047 C   0  0  0  0  0  0  0  0  0  0  0  0
    3.0979   -0.7668   -1.3660 N   0  0  0  0  0  0  0  0  0  0  0  0
    3.4970   -0.4899   -2.6732 C   0  0  0  0  0  0  0  0  0  0  0  0
    4.1621   -1.6015   -3.1403 C   0  0  0  0  0  0  0  0  0  0  0  0
    4.7356   -1.7182   -4.3806 C   0  0  0  0  0  0  0  0  0  0  0  0
    4.5872   -0.5672   -5.2046 C   0  0  0  0  0  0  0  0  0  0  0  0
    3.8304    0.5501   -4.7663 C   0  0  0  0  0  0  0  0  0  0  0  0
    3.2957    0.6225   -3.4693 C   0  0  0  0  0  0  0  0  0  0  0  0
    5.2771   -0.5172   -6.8446 S   0  0  0  0  0  0  0  0  0  0  0  0
    6.4359   -1.3776   -6.9024 O   0  0  0  0  0  0  0  0  0  0  0  0
    4.1529   -0.7037   -7.7405 O   0  0  0  0  0  0  0  0  0  0  0  0
    5.8208    1.0559   -7.1160 N   0  0  0  0  0  0  0  0  0  0  0  0
    6.3828    1.7988   -6.0559 C   0  0  0  0  0  0  0  0  0  0  0  0
    7.5172    1.5808   -5.3873 C   0  0  0  0  0  0  0  0  0  0  0  0
    7.7831    2.6218   -4.4734 N   0  0  0  0  0  0  0  0  0  0  0  0
    6.7262    3.5681   -4.6370 N   0  0  0  0  0  0  0  0  0  0  0  0
    5.8330    3.1011   -5.6031 C   0  0  0  0  0  0  0  0  0  0  0  0
    4.8147    3.5845   -6.0774 O   0  0  0  0  0  0  0  0  0  0  0  0
    6.8778    4.9244   -4.2629 C   0  0  0  0  0  0  0  0  0  0  0  0
    5.7716    5.7817   -4.2464 C   0  0  0  0  0  0  0  0  0  0  0  0
    5.8994    7.1178   -3.8578 C   0  0  0  0  0  0  0  0  0  0  0  0
    7.1448    7.6170   -3.4879 C   0  0  0  0  0  0  0  0  0  0  0  0
    8.2648    6.7917   -3.5308 C   0  0  0  0  0  0  0  0  0  0  0  0
    8.1273    5.4521   -3.9073 C   0  0  0  0  0  0  0  0  0  0  0  0
    8.0735    2.2770   -3.0714 C   0  0  0  0  0  0  0  0  0  0  0  0
    8.4878    0.4611   -5.5463 C   0  0  0  0  0  0  0  0  0  0  0  0
    5.3326   -2.9831   -4.6223 C   0  0  0  0  0  0  0  0  0  0  0  0
    5.2982   -4.0102   -3.6566 C   0  0  0  0  0  0  0  0  0  0  0  0
    4.6990   -3.8274   -2.4011 C   0  0  0  0  0  0  0  0  0  0  0  0
    4.1328   -2.5784   -2.1597 C   0  0  0  0  0  0  0  0  0  0  0  0
    3.4477   -2.0797   -0.9834 C   0  0  0  0  0  0  0  0  0  0  0  0
    3.2089   -2.6039    0.0976 O   0  0  0  0  0  0  0  0  0  0  0  0
    0.3688    0.7812   -0.0615 H   0  0  0  0  0  0  0  0  0  0  0  0
    0.4886   -0.9098   -0.5794 H   0  0  0  0  0  0  0  0  0  0  0  0
    0.6404    0.3880   -1.7728 H   0  0  0  0  0  0  0  0  0  0  0  0
    2.5907   -0.1262    0.5350 H   0  0  0  0  0  0  0  0  0  0  0  0
    2.7669    1.1572   -0.6638 H   0  0  0  0  0  0  0  0  0  0  0  0
    3.6303    1.3802   -5.4423 H   0  0  0  0  0  0  0  0  0  0  0  0
    2.7383    1.4886   -3.1312 H   0  0  0  0  0  0  0  0  0  0  0  0
    5.0900    1.5727   -7.6135 H   0  0  0  0  0  0  0  0  0  0  0  0
    4.7816    5.4240   -4.5107 H   0  0  0  0  0  0  0  0  0  0  0  0
    5.0254    7.7656   -3.8415 H   0  0  0  0  0  0  0  0  0  0  0  0
    7.2457    8.6512   -3.1722 H   0  0  0  0  0  0  0  0  0  0  0  0
    9.2463    7.1879   -3.2765 H   0  0  0  0  0  0  0  0  0  0  0  0
    9.0207    4.8367   -3.9524 H   0  0  0  0  0  0  0  0  0  0  0  0
    9.1001    1.9052   -2.9895 H   0  0  0  0  0  0  0  0  0  0  0  0
    7.3827    1.5054   -2.7120 H   0  0  0  0  0  0  0  0  0  0  0  0
    7.9846    3.1407   -2.4031 H   0  0  0  0  0  0  0  0  0  0  0  0
    8.4971    0.0840   -6.5729 H   0  0  0  0  0  0  0  0  0  0  0  0
    8.2300   -0.3509   -4.8603 H   0  0  0  0  0  0  0  0  0  0  0  0
    9.5066    0.7915   -5.3154 H   0  0  0  0  0  0  0  0  0  0  0  0
    5.8069   -3.2101   -5.5762 H   0  0  0  0  0  0  0  0  0  0  0  0
    5.7418   -4.9755   -3.8965 H   0  0  0  0  0  0  0  0  0  0  0  0
    4.6594   -4.6160   -1.6567 H   0  0  0  0  0  0  0  0  0  0  0  0
  1  2  1  0  0  0  0
  1 34  1  0  0  0  0
  1 35  1  0  0  0  0
  1 36  1  0  0  0  0
  2  3  1  0  0  0  0
  2 37  1  0  0  0  0
  2 38  1  0  0  0  0
  3  4  1  0  0  0  0
  3 32  1  0  0  0  0
  4  5  2  0  0  0  0
  4  9  1  0  0  0  0
  5  6  1  0  0  0  0
  5 31  1  0  0  0  0
  6  7  2  0  0  0  0
  6 28  1  0  0  0  0
  7  8  1  0  0  0  0
  7 10  1  0  0  0  0
  8  9  2  0  0  0  0
  8 39  1  0  0  0  0
  9 40  1  0  0  0  0
 10 11  2  0  0  0  0
 10 12  2  0  0  0  0
 10 13  1  0  0  0  0
 13 14  1  0  0  0  0
 13 41  1  0  0  0  0
 14 15  2  0  0  0  0
 14 18  1  0  0  0  0
 15 16  1  0  0  0  0
 15 27  1  0  0  0  0
 16 17  1  0  0  0  0
 16 26  1  0  0  0  0
 17 18  1  0  0  0  0
 17 20  1  0  0  0  0
 18 19  2  0  0  0  0
 20 21  2  0  0  0  0
 20 25  1  0  0  0  0
 21 22  1  0  0  0  0
 21 42  1  0  0  0  0
 22 23  2  0  0  0  0
 22 43  1  0  0  0  0
 23 24  1  0  0  0  0
 23 44  1  0  0  0  0
 24 25  2  0  0  0  0
 24 45  1  0  0  0  0
 25 46  1  0  0  0  0
 26 47  1  0  0  0  0
 26 48  1  0  0  0  0
 26 49  1  0  0  0  0
 27 50  1  0  0  0  0
 27 51  1  0  0  0  0
 27 52  1  0  0  0  0
 28 29  2  0  0  0  0
 28 53  1  0  0  0  0
 29 30  1  0  0  0  0
 29 54  1  0  0  0  0
 30 31  2  0  0  0  0
 30 55  1  0  0  0  0
 31 32  1  0  0  0  0
 32 33  2  0  0  0  0
M  END
