
 OpenBabel10072619543D

 56 57  0  0  0  0  0  0  0  0999 V2000
    0.9094   -0.1549   -0.2900 C   0  0  0  0  0  0  0  0  0  0  0  0
    2.4299   -0.1478   -0.2835 C   0  0  0  0  0  0  0  0  0  0  0  0
    2.9880    0.9820   -1.1482 C   0  0  0  0  0  0  0  0  0  0  0  0
    4.5178    0.9899   -1.1378 C   0  0  0  0  0  0  0  0  0  0  0  0
    5.0705    2.1264   -1.9993 C   0  0  0  0  0  0  0  0  0  0  0  0
    6.5999    2.1448   -1.9893 C   0  0  0  0  0  0  0  0  0  0  0  0
    7.1429    3.2882   -2.8481 C   0  0  0  0  0  0  0  0  0  0  0  0
    8.6721    3.3119   -2.8454 C   0  0  0  0  0  0  0  0  0  0  0  0
    9.2106    4.4516   -3.7122 C   0  0  0  0  0  0  0  0  0  0  0  0
   10.7402    4.4680   -3.7250 C   0  0  0  0  0  0  0  0  0  0  0  0
   11.2757    5.5891   -4.6157 C   0  0  0  0  0  0  0  0  0  0  0  0
   12.7561    5.5904   -4.6503 C   0  0  0  0  0  0  0  0  0  0  0  0
   13.5862    4.7168   -5.1804 N   0  0  0  0  0  0  0  0  0  0  0  0
   14.8559    5.2047   -4.9458 N   0  0  0  0  0  0  0  0  0  0  0  0
   14.7061    6.3362   -4.2912 C   0  0  0  0  0  0  0  0  0  0  0  0
   13.3975    6.6483   -4.0696 O   0  0  0  0  0  0  0  0  0  0  0  0
   15.7124    7.1606   -3.8801 N   0  0  0  0  0  0  0  0  0  0  0  0
   15.5018    8.2998   -3.1353 C   0  0  0  0  0  0  0  0  0  0  0  0
   14.4121    8.6673   -2.7168 O   0  0  0  0  0  0  0  0  0  0  0  0
   16.6986    8.9755   -2.9317 N   0  0  0  0  0  0  0  0  0  0  0  0
   16.9095   10.1459   -2.1722 C   0  0  0  0  0  0  0  0  0  0  0  0
   15.9320   10.7537   -1.3801 C   0  0  0  0  0  0  0  0  0  0  0  0
   16.2263   11.9129   -0.6517 C   0  0  0  0  0  0  0  0  0  0  0  0
   17.5009   12.4678   -0.7119 C   0  0  0  0  0  0  0  0  0  0  0  0
   18.4864   11.8723   -1.4933 C   0  0  0  0  0  0  0  0  0  0  0  0
   18.1911   10.7134   -2.2184 C   0  0  0  0  0  0  0  0  0  0  0  0
   17.8615   13.8911    0.1833 Cl  0  0  0  0  0  0  0  0  0  0  0  0
    0.5315   -0.9701    0.3350 H   0  0  0  0  0  0  0  0  0  0  0  0
    0.5219   -0.2966   -1.3040 H   0  0  0  0  0  0  0  0  0  0  0  0
    0.5109    0.7864    0.1020 H   0  0  0  0  0  0  0  0  0  0  0  0
    2.7956   -1.1136   -0.6511 H   0  0  0  0  0  0  0  0  0  0  0  0
    2.7844   -0.0374    0.7479 H   0  0  0  0  0  0  0  0  0  0  0  0
    2.6135    1.9451   -0.7803 H   0  0  0  0  0  0  0  0  0  0  0  0
    2.6284    0.8682   -2.1782 H   0  0  0  0  0  0  0  0  0  0  0  0
    4.8935    0.0292   -1.5105 H   0  0  0  0  0  0  0  0  0  0  0  0
    4.8779    1.1009   -0.1078 H   0  0  0  0  0  0  0  0  0  0  0  0
    4.6904    3.0859   -1.6280 H   0  0  0  0  0  0  0  0  0  0  0  0
    4.7119    2.0136   -3.0298 H   0  0  0  0  0  0  0  0  0  0  0  0
    6.9822    1.1880   -2.3653 H   0  0  0  0  0  0  0  0  0  0  0  0
    6.9603    2.2551   -0.9593 H   0  0  0  0  0  0  0  0  0  0  0  0
    6.7597    4.2444   -2.4712 H   0  0  0  0  0  0  0  0  0  0  0  0
    6.7796    3.1780   -3.8772 H   0  0  0  0  0  0  0  0  0  0  0  0
    9.0540    2.3541   -3.2194 H   0  0  0  0  0  0  0  0  0  0  0  0
    9.0369    3.4271   -1.8175 H   0  0  0  0  0  0  0  0  0  0  0  0
    8.8354    5.4106   -3.3345 H   0  0  0  0  0  0  0  0  0  0  0  0
    8.8368    4.3393   -4.7372 H   0  0  0  0  0  0  0  0  0  0  0  0
   11.1137    3.4994   -4.0817 H   0  0  0  0  0  0  0  0  0  0  0  0
   11.1167    4.5943   -2.7017 H   0  0  0  0  0  0  0  0  0  0  0  0
   10.9087    6.5577   -4.2560 H   0  0  0  0  0  0  0  0  0  0  0  0
   10.9000    5.4651   -5.6381 H   0  0  0  0  0  0  0  0  0  0  0  0
   16.6387    6.8277   -4.0824 H   0  0  0  0  0  0  0  0  0  0  0  0
   17.4934    8.6440   -3.4568 H   0  0  0  0  0  0  0  0  0  0  0  0
   14.9271   10.3502   -1.2994 H   0  0  0  0  0  0  0  0  0  0  0  0
   15.4523   12.3726   -0.0425 H   0  0  0  0  0  0  0  0  0  0  0  0
   19.4830   12.3027   -1.5437 H   0  0  0  0  0  0  0  0  0  0  0  0
   18.9779   10.2673   -2.8213 H   0  0  0  0  0  0  0  0  0  0  0  0
  1  2  1  0  0  0  0
  1 28  1  0  0  0  0
  1 29  1  0  0  0  0
  1 30  1  0  0  0  0
  2  3  1  0  0  0  0
  2 31  1  0  0  0  0
  2 32  1  0  0  0  0
  3  4  1  0  0  0  0
  3 33  1  0  0  0  0
  3 34  1  0  0  0  0
  4  5  1  0  0  0  0
  4 35  1  0  0  0  0
  4 36  1  0  0  0  0
  5  6  1  0  0  0  0
  5 37  1  0  0  0  0
  5 38  1  0  0  0  0
  6  7  1  0  0  0  0
  6 39  1  0  0  0  0
  6 40  1  0  0  0  0
  7  8  1  0  0  0  0
  7 41  1  0  0  0  0
  7 42  1  0  0  0  0
  8  9  1  0  0  0  0
  8 43  1  0  0  0  0
  8 44  1  0  0  0  0
  9 10  1  0  0  0  0
  9 45  1  0  0  0  0
  9 46  1  0  0  0  0
 10 11  1  0  0  0  0
 10 47  1  0  0  0  0
 10 48  1  0  0  0  0
 11 12  1  0  0  0  0
 11 49  1  0  0  0  0
 11 50  1  0  0  0  0
 12 13  2  0  0  0  0
 12 16  1  0  0  0  0
 13 14  1  0  0  0  0
 14 15  2  0  0  0  0
 15 16  1  0  0  0  0
 15 17  1  0  0  0  0
 17 18  1  0  0  0  0
 17 51  1  0  0  0  0
 18 19  2  0  0  0  0
 18 20  1  0  0  0  0
 20 21  1  0  0  0  0
 20 52  1  0  0  0  0
 21 22  2  0  0  0  0
 21 26  1  0  0  0  0
 22 23  1  0  0  0  0
 22 53  1  0  0  0  0
 23 24  2  0  0  0  0
 23 54  1  0  0  0  0
 24 25  1  0  0  0  0
 24 27  1  0  0  0  0
 25 26  2  0  0  0  0
 25 55  1  0  0  0  0
 26 56  1  0  0  0  0
M  END
