
 OpenBabel10072616323D

 44 45  0  0  0  0  0  0  0  0999 V2000
    0.8292   -0.4860   -0.5571 C   0  0  0  0  0  0  0  0  0  0  0  0
    2.2340   -0.2856   -0.4776 O   0  0  0  0  0  0  0  0  0  0  0  0
    2.9473   -1.1832    0.2756 C   0  0  0  0  0  0  0  0  0  0  0  0
    2.5060   -2.4834    0.5580 C   0  0  0  0  0  0  0  0  0  0  0  0
    3.3123   -3.3737    1.2828 C   0  0  0  0  0  0  0  0  0  0  0  0
    4.5632   -2.9441    1.7460 C   0  0  0  0  0  0  0  0  0  0  0  0
    5.0275   -1.6556    1.4683 C   0  0  0  0  0  0  0  0  0  0  0  0
    4.2128   -0.7728    0.7349 C   0  0  0  0  0  0  0  0  0  0  0  0
    4.7413    0.4655    0.4429 O   0  0  0  0  0  0  0  0  0  0  0  0
    3.9281    1.5472    0.8907 C   0  0  0  0  0  0  0  0  0  0  0  0
    6.2464   -1.1684    1.8685 O   0  0  0  0  0  0  0  0  0  0  0  0
    7.0575   -2.0027    2.6827 C   0  0  0  0  0  0  0  0  0  0  0  0
    2.8981   -4.7491    1.6045 C   0  0  0  0  0  0  0  0  0  0  0  0
    2.2154   -5.5454    0.7684 C   0  0  0  0  0  0  0  0  0  0  0  0
    1.8989   -6.8882    1.1191 C   0  0  0  0  0  0  0  0  0  0  0  0
    2.3402   -7.5655    2.1711 N   0  0  0  0  0  0  0  0  0  0  0  0
    1.7469   -8.8047    2.0698 C   0  0  0  0  0  0  0  0  0  0  0  0
    0.9448   -8.8612    0.9533 C   0  0  0  0  0  0  0  0  0  0  0  0
    1.0496   -7.6488    0.3379 O   0  0  0  0  0  0  0  0  0  0  0  0
    0.1143   -9.7286    0.3382 N   0  0  0  0  0  0  0  0  0  0  0  0
    0.1470  -11.1517    0.5870 C   0  0  0  0  0  0  0  0  0  0  0  0
   -1.0486  -11.7378   -0.1017 C   0  0  0  0  0  0  0  0  0  0  0  0
   -1.0173  -12.4159   -1.2574 C   0  0  0  0  0  0  0  0  0  0  0  0
    1.9873   -9.8180    3.0412 C   0  0  0  0  0  0  0  0  0  0  0  0
    2.1738  -10.6640    3.8162 N   0  0  0  0  0  0  0  0  0  0  0  0
    0.3856    0.4169   -0.9868 H   0  0  0  0  0  0  0  0  0  0  0  0
    0.3863   -0.6322    0.4337 H   0  0  0  0  0  0  0  0  0  0  0  0
    0.5960   -1.3205   -1.2239 H   0  0  0  0  0  0  0  0  0  0  0  0
    1.5384   -2.8235    0.2036 H   0  0  0  0  0  0  0  0  0  0  0  0
    5.1744   -3.6462    2.3047 H   0  0  0  0  0  0  0  0  0  0  0  0
    4.5955    2.3455    1.2294 H   0  0  0  0  0  0  0  0  0  0  0  0
    3.2747    1.2786    1.7293 H   0  0  0  0  0  0  0  0  0  0  0  0
    3.3402    1.9422    0.0565 H   0  0  0  0  0  0  0  0  0  0  0  0
    7.9669   -1.4484    2.9313 H   0  0  0  0  0  0  0  0  0  0  0  0
    7.3588   -2.9083    2.1477 H   0  0  0  0  0  0  0  0  0  0  0  0
    6.5519   -2.2483    3.6214 H   0  0  0  0  0  0  0  0  0  0  0  0
    3.2212   -5.1243    2.5763 H   0  0  0  0  0  0  0  0  0  0  0  0
    1.8968   -5.2100   -0.2120 H   0  0  0  0  0  0  0  0  0  0  0  0
   -0.1697   -9.4816   -0.6074 H   0  0  0  0  0  0  0  0  0  0  0  0
    0.0819  -11.3787    1.6559 H   0  0  0  0  0  0  0  0  0  0  0  0
    1.0760  -11.5865    0.2029 H   0  0  0  0  0  0  0  0  0  0  0  0
   -2.0049  -11.6024    0.3991 H   0  0  0  0  0  0  0  0  0  0  0  0
   -0.0950  -12.5786   -1.8057 H   0  0  0  0  0  0  0  0  0  0  0  0
   -1.9304  -12.8161   -1.6885 H   0  0  0  0  0  0  0  0  0  0  0  0
  1  2  1  0  0  0  0
  1 26  1  0  0  0  0
  1 27  1  0  0  0  0
  1 28  1  0  0  0  0
  2  3  1  0  0  0  0
  3  4  2  0  0  0  0
  3  8  1  0  0  0  0
  4  5  1  0  0  0  0
  4 29  1  0  0  0  0
  5  6  2  0  0  0  0
  5 13  1  0  0  0  0
  6  7  1  0  0  0  0
  6 30  1  0  0  0  0
  7  8  2  0  0  0  0
  7 11  1  0  0  0  0
  8  9  1  0  0  0  0
  9 10  1  0  0  0  0
 10 31  1  0  0  0  0
 10 32  1  0  0  0  0
 10 33  1  0  0  0  0
 11 12  1  0  0  0  0
 12 34  1  0  0  0  0
 12 35  1  0  0  0  0
 12 36  1  0  0  0  0
 13 14  2  0  0  0  0
 13 37  1  0  0  0  0
 14 15  1  0  0  0  0
 14 38  1  0  0  0  0
 15 16  2  0  0  0  0
 15 19  1  0  0  0  0
 16 17  1  0  0  0  0
 17 18  2  0  0  0  0
 17 24  1  0  0  0  0
 18 19  1  0  0  0  0
 18 20  1  0  0  0  0
 20 21  1  0  0  0  0
 20 39  1  0  0  0  0
 21 22  1  0  0  0  0
 21 40  1  0  0  0  0
 21 41  1  0  0  0  0
 22 23  2  0  0  0  0
 22 42  1  0  0  0  0
 23 43  1  0  0  0  0
 23 44  1  0  0  0  0
 24 25  3  0  0  0  0
M  END
