
 OpenBabel10072620203D

 35 37  0  0  0  0  0  0  0  0999 V2000
    0.8767    0.3471   -0.5152 C   0  0  0  0  0  0  0  0  0  0  0  0
    2.1852    0.0786   -0.0254 O   0  0  0  0  0  0  0  0  0  0  0  0
    2.9258   -0.8503   -0.7034 C   0  0  0  0  0  0  0  0  0  0  0  0
    2.5634   -1.4724   -1.8993 C   0  0  0  0  0  0  0  0  0  0  0  0
    3.4036   -2.4286   -2.4780 C   0  0  0  0  0  0  0  0  0  0  0  0
    4.6145   -2.7580   -1.8702 C   0  0  0  0  0  0  0  0  0  0  0  0
    4.9999   -2.1119   -0.6931 C   0  0  0  0  0  0  0  0  0  0  0  0
    4.1478   -1.1734   -0.1059 C   0  0  0  0  0  0  0  0  0  0  0  0
    6.2087   -2.4750   -0.0144 N   0  0  0  0  0  0  0  0  0  0  0  0
    7.4428   -2.3566   -0.7465 C   0  0  0  0  0  0  0  0  0  0  0  0
    8.6101   -2.8222   -0.2619 C   0  0  0  0  0  0  0  0  0  0  0  0
    8.8009   -3.5533    0.9500 C   0  0  0  0  0  0  0  0  0  0  0  0
    7.7071   -3.9673    1.6598 C   0  0  0  0  0  0  0  0  0  0  0  0
    6.0412   -3.6629    1.2015 S   0  0  0  0  0  0  0  0  0  0  0  0
    5.4164   -3.0758    2.3673 O   0  0  0  0  0  0  0  0  0  0  0  0
    5.5861   -4.9041    0.6102 O   0  0  0  0  0  0  0  0  0  0  0  0
    8.0921   -4.8403    3.0537 S   0  0  0  0  0  0  0  0  0  0  0  0
    9.7734   -4.6668    2.7383 C   0  0  0  0  0  0  0  0  0  0  0  0
   10.0106   -3.9650    1.5646 C   0  0  0  0  0  0  0  0  0  0  0  0
   10.8742   -5.4009    3.9243 S   0  0  0  0  0  0  0  0  0  0  0  0
   10.7381   -6.8251    3.7387 O   0  0  0  0  0  0  0  0  0  0  0  0
   12.1192   -4.6931    3.7420 O   0  0  0  0  0  0  0  0  0  0  0  0
   10.3094   -5.0203    5.4563 N   0  0  0  0  0  0  0  0  0  0  0  0
    0.3988    1.0478    0.1769 H   0  0  0  0  0  0  0  0  0  0  0  0
    0.2647   -0.5611   -0.5446 H   0  0  0  0  0  0  0  0  0  0  0  0
    0.9176    0.8253   -1.4993 H   0  0  0  0  0  0  0  0  0  0  0  0
    1.6284   -1.2434   -2.4003 H   0  0  0  0  0  0  0  0  0  0  0  0
    3.1039   -2.9282   -3.3962 H   0  0  0  0  0  0  0  0  0  0  0  0
    5.2413   -3.5292   -2.3101 H   0  0  0  0  0  0  0  0  0  0  0  0
    4.4282   -0.6947    0.8297 H   0  0  0  0  0  0  0  0  0  0  0  0
    7.4111   -1.8028   -1.6813 H   0  0  0  0  0  0  0  0  0  0  0  0
    9.5006   -2.6312   -0.8590 H   0  0  0  0  0  0  0  0  0  0  0  0
   11.0115   -3.7707    1.1950 H   0  0  0  0  0  0  0  0  0  0  0  0
    9.4071   -5.4469    5.6609 H   0  0  0  0  0  0  0  0  0  0  0  0
   10.3833   -4.0282    5.6731 H   0  0  0  0  0  0  0  0  0  0  0  0
  1  2  1  0  0  0  0
  1 24  1  0  0  0  0
  1 25  1  0  0  0  0
  1 26  1  0  0  0  0
  2  3  1  0  0  0  0
  3  4  2  0  0  0  0
  3  8  1  0  0  0  0
  4  5  1  0  0  0  0
  4 27  1  0  0  0  0
  5  6  2  0  0  0  0
  5 28  1  0  0  0  0
  6  7  1  0  0  0  0
  6 29  1  0  0  0  0
  7  8  2  0  0  0  0
  7  9  1  0  0  0  0
  8 30  1  0  0  0  0
  9 10  1  0  0  0  0
  9 14  1  0  0  0  0
 10 11  2  0  0  0  0
 10 31  1  0  0  0  0
 11 12  1  0  0  0  0
 11 32  1  0  0  0  0
 12 13  2  0  0  0  0
 12 19  1  0  0  0  0
 13 14  1  0  0  0  0
 13 17  1  0  0  0  0
 14 15  2  0  0  0  0
 14 16  2  0  0  0  0
 17 18  1  0  0  0  0
 18 19  2  0  0  0  0
 18 20  1  0  0  0  0
 19 33  1  0  0  0  0
 20 21  2  0  0  0  0
 20 22  2  0  0  0  0
 20 23  1  0  0  0  0
 23 34  1  0  0  0  0
 23 35  1  0  0  0  0
M  END
