
 OpenBabel10072620213D

 49 51  0  0  1  0  0  0  0  0999 V2000
    3.2109    1.5080    2.3088 C   0  0  0  0  0  0  0  0  0  0  0  0
    4.1944    1.3994    1.1866 C   0  0  0  0  0  0  0  0  0  0  0  0
    3.8317    1.6659   -0.0267 N   0  0  0  0  0  0  0  0  0  0  0  0
    4.8398    1.5557   -0.9606 C   0  0  0  0  0  0  0  0  0  0  0  0
    4.9350    0.4343   -1.6952 C   0  0  0  0  0  0  0  0  0  0  0  0
    5.6909    2.7157   -1.1543 C   0  0  0  0  0  0  0  0  0  0  0  0
    5.5745    3.9069   -0.5487 N   0  0  0  0  0  0  0  0  0  0  0  0
    6.5239    4.6468   -1.1713 N   0  0  0  0  0  0  0  0  0  0  0  0
    7.2782    3.8667   -2.0212 C   0  0  0  0  0  0  0  0  0  0  0  0
    6.7424    2.6570   -2.0332 N   0  0  0  0  0  0  0  0  0  0  0  0
    8.4062    4.2727   -2.8643 C   0  0  0  0  0  0  0  0  0  0  0  0
    9.3876    5.1839   -2.4536 C   0  0  0  0  0  0  0  0  0  0  0  0
   10.4324    5.5403   -3.3118 C   0  0  0  0  0  0  0  0  0  0  0  0
   10.5250    4.9710   -4.5800 C   0  0  0  0  0  0  0  0  0  0  0  0
    9.5823    4.0318   -4.9875 C   0  0  0  0  0  0  0  0  0  0  0  0
    8.5337    3.6859   -4.1345 C   0  0  0  0  0  0  0  0  0  0  0  0
    6.5907    6.0856   -0.9065 C   0  0  3  0  0  0  0  0  0  0  0  0
    5.4459    6.6579   -0.0315 C   0  0  1  0  0  0  0  0  0  0  0  0
    4.1269    6.7256   -0.8072 C   0  0  2  0  0  0  0  0  0  0  0  0
    4.3219    7.4708   -2.1282 C   0  0  1  0  0  0  0  0  0  0  0  0
    5.4805    6.8395   -2.9163 C   0  0  2  0  0  0  0  0  0  0  0  0
    6.6881    6.8286   -2.1364 O   0  0  0  0  0  0  0  0  0  0  0  0
    5.7455    7.6078   -4.2221 C   0  0  0  0  0  0  0  0  0  0  0  0
    4.6673    7.4954   -5.1450 O   0  0  0  0  0  0  0  0  0  0  0  0
    3.1078    7.4353   -2.8867 O   0  0  0  0  0  0  0  0  0  0  0  0
    3.1358    7.4212   -0.0322 O   0  0  0  0  0  0  0  0  0  0  0  0
    5.2421    5.9534    1.2027 O   0  0  0  0  0  0  0  0  0  0  0  0
    3.5551    2.2816    2.9994 H   0  0  0  0  0  0  0  0  0  0  0  0
    3.1713    0.5549    2.8411 H   0  0  0  0  0  0  0  0  0  0  0  0
    2.2155    1.7625    1.9371 H   0  0  0  0  0  0  0  0  0  0  0  0
    5.2234    1.0972    1.4566 H   0  0  0  0  0  0  0  0  0  0  0  0
    4.2422   -0.3849   -1.5424 H   0  0  0  0  0  0  0  0  0  0  0  0
    5.6862    0.3242   -2.4697 H   0  0  0  0  0  0  0  0  0  0  0  0
    9.3736    5.6211   -1.4609 H   0  0  0  0  0  0  0  0  0  0  0  0
   11.1811    6.2585   -2.9854 H   0  0  0  0  0  0  0  0  0  0  0  0
   11.3378    5.2494   -5.2450 H   0  0  0  0  0  0  0  0  0  0  0  0
    9.6618    3.5653   -5.9662 H   0  0  0  0  0  0  0  0  0  0  0  0
    7.8062    2.9454   -4.4658 H   0  0  0  0  0  0  0  0  0  0  0  0
    7.5268    6.2223   -0.3528 H   0  0  0  0  0  0  0  0  0  0  0  0
    5.7166    7.6833    0.2531 H   0  0  0  0  0  0  0  0  0  0  0  0
    3.7073    5.7298   -0.9848 H   0  0  0  0  0  0  0  0  0  0  0  0
    4.5340    8.5265   -1.9166 H   0  0  0  0  0  0  0  0  0  0  0  0
    5.2095    5.8133   -3.1943 H   0  0  0  0  0  0  0  0  0  0  0  0
    5.9296    8.6695   -4.0193 H   0  0  0  0  0  0  0  0  0  0  0  0
    6.6487    7.2199   -4.7062 H   0  0  0  0  0  0  0  0  0  0  0  0
    3.8346    7.5547   -4.6283 H   0  0  0  0  0  0  0  0  0  0  0  0
    2.3943    7.6200   -2.2395 H   0  0  0  0  0  0  0  0  0  0  0  0
    3.1962    7.0447    0.8698 H   0  0  0  0  0  0  0  0  0  0  0  0
    5.0874    5.0123    0.9498 H   0  0  0  0  0  0  0  0  0  0  0  0
  1  2  1  0  0  0  0
  1 28  1  0  0  0  0
  1 29  1  0  0  0  0
  1 30  1  0  0  0  0
  2  3  2  3  0  0  0
  2 31  1  0  0  0  0
  3  4  1  0  0  0  0
  4  5  2  0  0  0  0
  4  6  1  0  0  0  0
  5 32  1  0  0  0  0
  5 33  1  0  0  0  0
  6  7  2  0  0  0  0
  6 10  1  0  0  0  0
  7  8  1  0  0  0  0
  8  9  1  0  0  0  0
  8 17  1  0  0  0  0
  9 10  2  0  0  0  0
  9 11  1  0  0  0  0
 11 12  2  0  0  0  0
 11 16  1  0  0  0  0
 12 13  1  0  0  0  0
 12 34  1  0  0  0  0
 13 14  2  0  0  0  0
 13 35  1  0  0  0  0
 14 15  1  0  0  0  0
 14 36  1  0  0  0  0
 15 16  2  0  0  0  0
 15 37  1  0  0  0  0
 16 38  1  0  0  0  0
 17 18  1  0  0  0  0
 17 22  1  0  0  0  0
 17 39  1  0  0  0  0
 18 19  1  0  0  0  0
 18 27  1  0  0  0  0
 18 40  1  1  0  0  0
 19 20  1  0  0  0  0
 19 26  1  0  0  0  0
 19 41  1  6  0  0  0
 20 21  1  0  0  0  0
 20 25  1  0  0  0  0
 20 42  1  1  0  0  0
 21 22  1  0  0  0  0
 21 23  1  0  0  0  0
 21 43  1  6  0  0  0
 23 24  1  0  0  0  0
 23 44  1  0  0  0  0
 23 45  1  0  0  0  0
 24 46  1  0  0  0  0
 25 47  1  0  0  0  0
 26 48  1  0  0  0  0
 27 49  1  0  0  0  0
M  END
