
 OpenBabel10072620003D

 57 58  0  0  0  0  0  0  0  0999 V2000
   10.6161    4.1906   -8.6378 C   0  0  0  0  0  0  0  0  0  0  0  0
    9.9297    5.1976   -7.7263 C   0  0  0  0  0  0  0  0  0  0  0  0
    8.4084    5.0486   -7.7091 C   0  0  0  0  0  0  0  0  0  0  0  0
    7.9689    3.7887   -7.1439 N   0  0  0  0  0  0  0  0  0  0  0  0
    7.9369    3.5679   -5.7969 C   0  0  0  0  0  0  0  0  0  0  0  0
    8.2775    4.3899   -4.9646 O   0  0  0  0  0  0  0  0  0  0  0  0
    7.5058    2.2901   -5.4844 N   0  0  0  0  0  0  0  0  0  0  0  0
    7.4207    1.6691   -3.9439 S   0  0  0  0  0  0  0  0  0  0  0  0
    6.6302    2.5428   -3.1064 O   0  0  0  0  0  0  0  0  0  0  0  0
    7.0549    0.2768   -4.1131 O   0  0  0  0  0  0  0  0  0  0  0  0
    9.1115    1.7036   -3.4039 C   0  0  0  0  0  0  0  0  0  0  0  0
    9.5661    2.7567   -2.6081 C   0  0  0  0  0  0  0  0  0  0  0  0
   10.9027    2.7903   -2.2044 C   0  0  0  0  0  0  0  0  0  0  0  0
   11.7864    1.7715   -2.5887 C   0  0  0  0  0  0  0  0  0  0  0  0
   11.3059    0.7005   -3.3585 C   0  0  0  0  0  0  0  0  0  0  0  0
    9.9703    0.6612   -3.7621 C   0  0  0  0  0  0  0  0  0  0  0  0
   13.2383    1.8153   -2.1809 C   0  0  0  0  0  0  0  0  0  0  0  0
   13.5045    1.0933   -0.8564 C   0  0  0  0  0  0  0  0  0  0  0  0
   14.9627    0.9906   -0.6555 N   0  0  0  0  0  0  0  0  0  0  0  0
   15.5356   -0.1610    0.4407 S   0  0  0  0  0  0  0  0  0  0  0  0
   16.8865    0.2551    0.7430 O   0  0  0  0  0  0  0  0  0  0  0  0
   14.5136   -0.3160    1.4499 O   0  0  0  0  0  0  0  0  0  0  0  0
   15.6564   -1.6622   -0.5050 C   0  0  0  0  0  0  0  0  0  0  0  0
   15.8970   -2.8728    0.1700 C   0  0  0  0  0  0  0  0  0  0  0  0
   15.9607   -4.0534   -0.5739 C   0  0  0  0  0  0  0  0  0  0  0  0
   15.7979   -4.0001   -1.9671 C   0  0  0  0  0  0  0  0  0  0  0  0
   15.5761   -2.8035   -2.6428 C   0  0  0  0  0  0  0  0  0  0  0  0
   15.5089   -1.6248   -1.9022 C   0  0  0  0  0  0  0  0  0  0  0  0
   15.3884   -2.6957   -4.3534 Cl  0  0  0  0  0  0  0  0  0  0  0  0
   15.8635   -5.2440   -2.6945 N   0  3  0  0  0  0  0  0  0  0  0  0
   16.9741   -5.7815   -2.7787 O   0  0  0  0  0  0  0  0  0  0  0  0
   14.7958   -5.7009   -3.1211 O   0  5  0  0  0  0  0  0  0  0  0  0
   16.0699   -2.8085    1.5225 O   0  0  0  0  0  0  0  0  0  0  0  0
   16.2843   -4.0151    2.2455 C   0  0  0  0  0  0  0  0  0  0  0  0
   11.6978    4.3600   -8.6362 H   0  0  0  0  0  0  0  0  0  0  0  0
   10.2619    4.2843   -9.6692 H   0  0  0  0  0  0  0  0  0  0  0  0
   10.4382    3.1642   -8.3037 H   0  0  0  0  0  0  0  0  0  0  0  0
   10.1796    6.2080   -8.0705 H   0  0  0  0  0  0  0  0  0  0  0  0
   10.3345    5.0944   -6.7129 H   0  0  0  0  0  0  0  0  0  0  0  0
    8.0028    5.1081   -8.7253 H   0  0  0  0  0  0  0  0  0  0  0  0
    7.9709    5.8640   -7.1209 H   0  0  0  0  0  0  0  0  0  0  0  0
    7.6906    3.0517   -7.7708 H   0  0  0  0  0  0  0  0  0  0  0  0
    7.2748    1.6137   -6.1976 H   0  0  0  0  0  0  0  0  0  0  0  0
    8.8940    3.5640   -2.3206 H   0  0  0  0  0  0  0  0  0  0  0  0
   11.2496    3.6270   -1.6008 H   0  0  0  0  0  0  0  0  0  0  0  0
   11.9708   -0.1081   -3.6567 H   0  0  0  0  0  0  0  0  0  0  0  0
    9.6110   -0.1772   -4.3542 H   0  0  0  0  0  0  0  0  0  0  0  0
   13.5746    2.8586   -2.1166 H   0  0  0  0  0  0  0  0  0  0  0  0
   13.8440    1.3671   -2.9808 H   0  0  0  0  0  0  0  0  0  0  0  0
   13.0591    0.0926   -0.8846 H   0  0  0  0  0  0  0  0  0  0  0  0
   13.0549    1.6476   -0.0245 H   0  0  0  0  0  0  0  0  0  0  0  0
   15.4915    1.8602   -0.5632 H   0  0  0  0  0  0  0  0  0  0  0  0
   16.1371   -5.0167   -0.1033 H   0  0  0  0  0  0  0  0  0  0  0  0
   15.3502   -0.6821   -2.4188 H   0  0  0  0  0  0  0  0  0  0  0  0
   16.4485   -3.7525    3.2952 H   0  0  0  0  0  0  0  0  0  0  0  0
   17.1789   -4.5377    1.8915 H   0  0  0  0  0  0  0  0  0  0  0  0
   15.4015   -4.6605    2.1978 H   0  0  0  0  0  0  0  0  0  0  0  0
  1  2  1  0  0  0  0
  1 35  1  0  0  0  0
  1 36  1  0  0  0  0
  1 37  1  0  0  0  0
  2  3  1  0  0  0  0
  2 38  1  0  0  0  0
  2 39  1  0  0  0  0
  3  4  1  0  0  0  0
  3 40  1  0  0  0  0
  3 41  1  0  0  0  0
  4  5  1  0  0  0  0
  4 42  1  0  0  0  0
  5  6  2  0  0  0  0
  5  7  1  0  0  0  0
  7  8  1  0  0  0  0
  7 43  1  0  0  0  0
  8  9  2  0  0  0  0
  8 10  2  0  0  0  0
  8 11  1  0  0  0  0
 11 12  2  0  0  0  0
 11 16  1  0  0  0  0
 12 13  1  0  0  0  0
 12 44  1  0  0  0  0
 13 14  2  0  0  0  0
 13 45  1  0  0  0  0
 14 15  1  0  0  0  0
 14 17  1  0  0  0  0
 15 16  2  0  0  0  0
 15 46  1  0  0  0  0
 16 47  1  0  0  0  0
 17 18  1  0  0  0  0
 17 48  1  0  0  0  0
 17 49  1  0  0  0  0
 18 19  1  0  0  0  0
 18 50  1  0  0  0  0
 18 51  1  0  0  0  0
 19 20  1  0  0  0  0
 19 52  1  0  0  0  0
 20 21  2  0  0  0  0
 20 22  2  0  0  0  0
 20 23  1  0  0  0  0
 23 24  2  0  0  0  0
 23 28  1  0  0  0  0
 24 25  1  0  0  0  0
 24 33  1  0  0  0  0
 25 26  2  0  0  0  0
 25 53  1  0  0  0  0
 26 27  1  0  0  0  0
 26 30  1  0  0  0  0
 27 28  2  0  0  0  0
 27 29  1  0  0  0  0
 28 54  1  0  0  0  0
 30 31  2  0  0  0  0
 30 32  1  0  0  0  0
 33 34  1  0  0  0  0
 34 55  1  0  0  0  0
 34 56  1  0  0  0  0
 34 57  1  0  0  0  0
M  CHG  2  30   1  32  -1
M  END
