
 OpenBabel10072620083D

 53 56  0  0  0  0  0  0  0  0999 V2000
    0.8417    1.7126    1.1583 C   0  0  0  0  0  0  0  0  0  0  0  0
    2.2510    1.8783    1.6978 C   0  0  0  0  0  0  0  0  0  0  0  0
    3.1014    0.9395    1.0409 O   0  0  0  0  0  0  0  0  0  0  0  0
    4.4500    0.9938    1.3183 C   0  0  0  0  0  0  0  0  0  0  0  0
    5.0021    1.8535    2.2682 C   0  0  0  0  0  0  0  0  0  0  0  0
    6.3770    1.8869    2.4635 C   0  0  0  0  0  0  0  0  0  0  0  0
    7.2198    1.0501    1.7189 C   0  0  0  0  0  0  0  0  0  0  0  0
    6.6948    0.1176    0.7823 C   0  0  0  0  0  0  0  0  0  0  0  0
    7.4686   -0.8040    0.0275 C   0  0  0  0  0  0  0  0  0  0  0  0
    6.8931   -1.6853   -0.8902 C   0  0  0  0  0  0  0  0  0  0  0  0
    5.5232   -1.6792   -1.0841 C   0  0  0  0  0  0  0  0  0  0  0  0
    4.7334   -0.7903   -0.3593 C   0  0  0  0  0  0  0  0  0  0  0  0
    5.2837    0.1097    0.5815 C   0  0  0  0  0  0  0  0  0  0  0  0
    8.9748    1.2748    1.9677 S   0  0  0  0  0  0  0  0  0  0  0  0
    9.1606    2.3586    2.9080 O   0  0  0  0  0  0  0  0  0  0  0  0
    9.5756   -0.0197    2.1980 O   0  0  0  0  0  0  0  0  0  0  0  0
    9.5289    1.8147    0.4793 N   0  0  0  0  0  0  0  0  0  0  0  0
    8.9125    2.9692   -0.1850 C   0  0  0  0  0  0  0  0  0  0  0  0
    9.4790    4.3021    0.3059 C   0  0  0  0  0  0  0  0  0  0  0  0
    8.7926    5.4486   -0.3787 C   0  0  0  0  0  0  0  0  0  0  0  0
    7.6522    6.1102    0.0534 C   0  0  0  0  0  0  0  0  0  0  0  0
    7.3355    7.0543   -0.8925 N   0  0  0  0  0  0  0  0  0  0  0  0
    8.2307    7.0164   -1.9340 C   0  0  0  0  0  0  0  0  0  0  0  0
    8.2790    7.7786   -3.1074 C   0  0  0  0  0  0  0  0  0  0  0  0
    9.3199    7.5227   -4.0039 C   0  0  0  0  0  0  0  0  0  0  0  0
   10.2704    6.5411   -3.7365 C   0  0  0  0  0  0  0  0  0  0  0  0
   10.2051    5.7869   -2.5590 C   0  0  0  0  0  0  0  0  0  0  0  0
    9.1655    6.0270   -1.6365 C   0  0  0  0  0  0  0  0  0  0  0  0
    6.8166    5.9449    1.2718 C   0  0  0  0  0  0  0  0  0  0  0  0
    0.1589    2.4142    1.6463 H   0  0  0  0  0  0  0  0  0  0  0  0
    0.4792    0.6929    1.3238 H   0  0  0  0  0  0  0  0  0  0  0  0
    0.8165    1.8903    0.0780 H   0  0  0  0  0  0  0  0  0  0  0  0
    2.2445    1.6856    2.7767 H   0  0  0  0  0  0  0  0  0  0  0  0
    2.5838    2.9039    1.4986 H   0  0  0  0  0  0  0  0  0  0  0  0
    4.3930    2.5187    2.8710 H   0  0  0  0  0  0  0  0  0  0  0  0
    6.7824    2.5851    3.1943 H   0  0  0  0  0  0  0  0  0  0  0  0
    8.5456   -0.8757    0.1549 H   0  0  0  0  0  0  0  0  0  0  0  0
    7.5189   -2.3797   -1.4445 H   0  0  0  0  0  0  0  0  0  0  0  0
    5.0637   -2.3668   -1.7891 H   0  0  0  0  0  0  0  0  0  0  0  0
    3.6579   -0.8081   -0.5325 H   0  0  0  0  0  0  0  0  0  0  0  0
    9.9500    1.0925   -0.1009 H   0  0  0  0  0  0  0  0  0  0  0  0
    7.8234    2.9423   -0.0794 H   0  0  0  0  0  0  0  0  0  0  0  0
    9.1054    2.8649   -1.2603 H   0  0  0  0  0  0  0  0  0  0  0  0
   10.5585    4.3388    0.1139 H   0  0  0  0  0  0  0  0  0  0  0  0
    9.3625    4.4048    1.3902 H   0  0  0  0  0  0  0  0  0  0  0  0
    6.5458    7.6823   -0.8446 H   0  0  0  0  0  0  0  0  0  0  0  0
    7.5381    8.5419   -3.3196 H   0  0  0  0  0  0  0  0  0  0  0  0
    9.3892    8.1015   -4.9220 H   0  0  0  0  0  0  0  0  0  0  0  0
   11.0733    6.3584   -4.4460 H   0  0  0  0  0  0  0  0  0  0  0  0
   10.9535    5.0257   -2.3608 H   0  0  0  0  0  0  0  0  0  0  0  0
    7.0611    5.0218    1.8054 H   0  0  0  0  0  0  0  0  0  0  0  0
    5.7536    5.9060    1.0106 H   0  0  0  0  0  0  0  0  0  0  0  0
    6.9742    6.7855    1.9551 H   0  0  0  0  0  0  0  0  0  0  0  0
  1  2  1  0  0  0  0
  1 30  1  0  0  0  0
  1 31  1  0  0  0  0
  1 32  1  0  0  0  0
  2  3  1  0  0  0  0
  2 33  1  0  0  0  0
  2 34  1  0  0  0  0
  3  4  1  0  0  0  0
  4  5  2  0  0  0  0
  4 13  1  0  0  0  0
  5  6  1  0  0  0  0
  5 35  1  0  0  0  0
  6  7  2  0  0  0  0
  6 36  1  0  0  0  0
  7  8  1  0  0  0  0
  7 14  1  0  0  0  0
  8  9  2  0  0  0  0
  8 13  1  0  0  0  0
  9 10  1  0  0  0  0
  9 37  1  0  0  0  0
 10 11  2  0  0  0  0
 10 38  1  0  0  0  0
 11 12  1  0  0  0  0
 11 39  1  0  0  0  0
 12 13  2  0  0  0  0
 12 40  1  0  0  0  0
 14 15  2  0  0  0  0
 14 16  2  0  0  0  0
 14 17  1  0  0  0  0
 17 18  1  0  0  0  0
 17 41  1  0  0  0  0
 18 19  1  0  0  0  0
 18 42  1  0  0  0  0
 18 43  1  0  0  0  0
 19 20  1  0  0  0  0
 19 44  1  0  0  0  0
 19 45  1  0  0  0  0
 20 21  2  0  0  0  0
 20 28  1  0  0  0  0
 21 22  1  0  0  0  0
 21 29  1  0  0  0  0
 22 23  1  0  0  0  0
 22 46  1  0  0  0  0
 23 24  2  0  0  0  0
 23 28  1  0  0  0  0
 24 25  1  0  0  0  0
 24 47  1  0  0  0  0
 25 26  2  0  0  0  0
 25 48  1  0  0  0  0
 26 27  1  0  0  0  0
 26 49  1  0  0  0  0
 27 28  2  0  0  0  0
 27 50  1  0  0  0  0
 29 51  1  0  0  0  0
 29 52  1  0  0  0  0
 29 53  1  0  0  0  0
M  END
