
 OpenBabel10072620223D

176175  0  0  0  0  0  0  0  0999 V2000
   10.0329    0.6939    6.2990 C   0  0  0  0  0  0  0  0  0  0  0  0
   11.0747    1.2083    5.3169 C   0  0  0  0  0  0  0  0  0  0  0  0
   10.4507    2.1135    4.2548 C   0  0  0  0  0  0  0  0  0  0  0  0
   11.5008    2.6222    3.2616 C   0  0  0  0  0  0  0  0  0  0  0  0
   10.8654    3.5300    2.2074 C   0  0  0  0  0  0  0  0  0  0  0  0
   11.8871    4.0484    1.1881 C   0  0  0  0  0  0  0  0  0  0  0  0
   11.2043    4.9705    0.1755 C   0  0  0  0  0  0  0  0  0  0  0  0
   12.1620    5.5222   -0.8879 C   0  0  0  0  0  0  0  0  0  0  0  0
   11.3964    6.4387   -1.8474 C   0  0  0  0  0  0  0  0  0  0  0  0
   12.2549    7.0119   -2.9817 C   0  0  0  0  0  0  0  0  0  0  0  0
   11.3826    7.8931   -3.8847 C   0  0  0  0  0  0  0  0  0  0  0  0
   12.0768    8.4862   -5.1177 C   0  0  0  0  0  0  0  0  0  0  0  0
   12.8541    7.5516   -5.9448 N   0  0  0  0  0  0  0  0  0  0  0  0
   12.1634    6.7106   -6.9378 C   0  0  0  0  0  0  0  0  0  0  0  0
   10.7789    6.1971   -6.5568 C   0  0  0  0  0  0  0  0  0  0  0  0
   10.1909    5.2686   -7.6238 C   0  0  0  0  0  0  0  0  0  0  0  0
    8.7884    4.8299   -7.2058 C   0  0  0  0  0  0  0  0  0  0  0  0
    8.1551    3.8507   -8.1934 C   0  0  0  0  0  0  0  0  0  0  0  0
    6.7148    3.5572   -7.7723 C   0  0  0  0  0  0  0  0  0  0  0  0
    6.0348    2.5398   -8.6848 C   0  0  0  0  0  0  0  0  0  0  0  0
    4.5854    2.3236   -8.2469 C   0  0  0  0  0  0  0  0  0  0  0  0
    3.8920    1.2571   -9.0912 C   0  0  0  0  0  0  0  0  0  0  0  0
    2.4456    1.0567   -8.6354 C   0  0  0  0  0  0  0  0  0  0  0  0
    1.7470   -0.0209   -9.4625 C   0  0  0  0  0  0  0  0  0  0  0  0
    0.3056   -0.2183   -9.0204 C   0  0  0  0  0  0  0  0  0  0  0  0
   14.2357    7.7658   -5.9619 C   0  0  0  0  0  0  0  0  0  0  0  0
   14.8172    8.4530   -5.1242 O   0  0  0  0  0  0  0  0  0  0  0  0
   14.9137    7.1746   -6.9993 N   0  0  0  0  0  0  0  0  0  0  0  0
   16.3149    7.4609   -7.2443 C   0  0  0  0  0  0  0  0  0  0  0  0
   16.4756    8.6661   -8.1751 C   0  0  0  0  0  0  0  0  0  0  0  0
   17.9453    8.9209   -8.5158 C   0  0  0  0  0  0  0  0  0  0  0  0
   18.1141   10.0067   -9.5846 C   0  0  0  0  0  0  0  0  0  0  0  0
   19.5801   10.3296   -9.9010 C   0  0  0  0  0  0  0  0  0  0  0  0
   20.3580    9.1405  -10.4644 C   0  0  0  0  0  0  0  0  0  0  0  0
   21.7405    9.4934  -10.7315 N   0  0  0  0  0  0  0  0  0  0  0  0
   22.1627    9.8710  -11.9821 C   0  0  0  0  0  0  0  0  0  0  0  0
   21.4030    9.8982  -12.9470 O   0  0  0  0  0  0  0  0  0  0  0  0
   23.5162   10.1899  -12.0634 N   0  0  0  0  0  0  0  0  0  0  0  0
   24.3631   10.4723  -10.8934 C   0  0  0  0  0  0  0  0  0  0  0  0
   25.1872   11.7597  -10.9845 C   0  0  0  0  0  0  0  0  0  0  0  0
   24.3158   13.0180  -11.0306 C   0  0  0  0  0  0  0  0  0  0  0  0
   25.1935   14.2683  -11.0701 C   0  0  0  0  0  0  0  0  0  0  0  0
   24.3665   15.5517  -11.1408 C   0  0  0  0  0  0  0  0  0  0  0  0
   25.2863   16.7732  -11.1860 C   0  0  0  0  0  0  0  0  0  0  0  0
   24.4993   18.0812  -11.2663 C   0  0  0  0  0  0  0  0  0  0  0  0
   25.4451   19.2838  -11.3159 C   0  0  0  0  0  0  0  0  0  0  0  0
   24.6805   20.6062  -11.3982 C   0  0  0  0  0  0  0  0  0  0  0  0
   25.6400   21.7977  -11.4574 C   0  0  0  0  0  0  0  0  0  0  0  0
   24.8852   23.1240  -11.5472 C   0  0  0  0  0  0  0  0  0  0  0  0
   25.8394   24.3064  -11.6162 C   0  0  0  0  0  0  0  0  0  0  0  0
   24.1245   10.2542  -13.4009 C   0  0  0  0  0  0  0  0  0  0  0  0
   25.2489    9.2279  -13.5786 C   0  0  0  0  0  0  0  0  0  0  0  0
   25.8000    9.2268  -15.0057 C   0  0  0  0  0  0  0  0  0  0  0  0
   26.9443    8.2195  -15.1499 C   0  0  0  0  0  0  0  0  0  0  0  0
   27.5209    8.2193  -16.5661 C   0  0  0  0  0  0  0  0  0  0  0  0
   28.6767    7.2240  -16.7032 C   0  0  0  0  0  0  0  0  0  0  0  0
   29.2365    7.2276  -18.1266 C   0  0  0  0  0  0  0  0  0  0  0  0
   30.4042    6.2528  -18.2842 C   0  0  0  0  0  0  0  0  0  0  0  0
   30.9413    6.2701  -19.7175 C   0  0  0  0  0  0  0  0  0  0  0  0
   32.1162    5.3062  -19.8855 C   0  0  0  0  0  0  0  0  0  0  0  0
   32.6568    5.3234  -21.3157 C   0  0  0  0  0  0  0  0  0  0  0  0
   33.8261    4.3642  -21.4780 C   0  0  0  0  0  0  0  0  0  0  0  0
   10.5041    0.0494    7.0482 H   0  0  0  0  0  0  0  0  0  0  0  0
    9.2626    0.1094    5.7855 H   0  0  0  0  0  0  0  0  0  0  0  0
    9.5440    1.5216    6.8231 H   0  0  0  0  0  0  0  0  0  0  0  0
   11.5658    0.3547    4.8355 H   0  0  0  0  0  0  0  0  0  0  0  0
   11.8460    1.7586    5.8681 H   0  0  0  0  0  0  0  0  0  0  0  0
    9.9599    2.9651    4.7419 H   0  0  0  0  0  0  0  0  0  0  0  0
    9.6721    1.5610    3.7146 H   0  0  0  0  0  0  0  0  0  0  0  0
   11.9853    1.7693    2.7715 H   0  0  0  0  0  0  0  0  0  0  0  0
   12.2798    3.1737    3.8014 H   0  0  0  0  0  0  0  0  0  0  0  0
   10.3860    4.3813    2.7064 H   0  0  0  0  0  0  0  0  0  0  0  0
   10.0747    2.9790    1.6827 H   0  0  0  0  0  0  0  0  0  0  0  0
   12.3531    3.2037    0.6673 H   0  0  0  0  0  0  0  0  0  0  0  0
   12.6848    4.5933    1.7063 H   0  0  0  0  0  0  0  0  0  0  0  0
   10.7383    5.8075    0.7105 H   0  0  0  0  0  0  0  0  0  0  0  0
   10.3948    4.4207   -0.3208 H   0  0  0  0  0  0  0  0  0  0  0  0
   12.6154    4.6941   -1.4450 H   0  0  0  0  0  0  0  0  0  0  0  0
   12.9748    6.0794   -0.4079 H   0  0  0  0  0  0  0  0  0  0  0  0
   10.9549    7.2661   -1.2782 H   0  0  0  0  0  0  0  0  0  0  0  0
   10.5639    5.8747   -2.2869 H   0  0  0  0  0  0  0  0  0  0  0  0
   12.6871    6.1869   -3.5585 H   0  0  0  0  0  0  0  0  0  0  0  0
   13.0816    7.6000   -2.5678 H   0  0  0  0  0  0  0  0  0  0  0  0
   10.9873    8.7283   -3.2904 H   0  0  0  0  0  0  0  0  0  0  0  0
   10.5001    7.3237   -4.1894 H   0  0  0  0  0  0  0  0  0  0  0  0
   12.7178    9.3073   -4.7757 H   0  0  0  0  0  0  0  0  0  0  0  0
   11.3328    8.9630   -5.7688 H   0  0  0  0  0  0  0  0  0  0  0  0
   12.7963    5.8403   -7.1434 H   0  0  0  0  0  0  0  0  0  0  0  0
   12.0979    7.2982   -7.8618 H   0  0  0  0  0  0  0  0  0  0  0  0
   10.0944    7.0402   -6.4098 H   0  0  0  0  0  0  0  0  0  0  0  0
   10.8442    5.6460   -5.6115 H   0  0  0  0  0  0  0  0  0  0  0  0
   10.8378    4.3926   -7.7528 H   0  0  0  0  0  0  0  0  0  0  0  0
   10.1443    5.7885   -8.5884 H   0  0  0  0  0  0  0  0  0  0  0  0
    8.1505    5.7180   -7.1130 H   0  0  0  0  0  0  0  0  0  0  0  0
    8.8328    4.3637   -6.2131 H   0  0  0  0  0  0  0  0  0  0  0  0
    8.7379    2.9220   -8.2204 H   0  0  0  0  0  0  0  0  0  0  0  0
    8.1672    4.2742   -9.2048 H   0  0  0  0  0  0  0  0  0  0  0  0
    6.1400    4.4920   -7.7760 H   0  0  0  0  0  0  0  0  0  0  0  0
    6.7056    3.1801   -6.7420 H   0  0  0  0  0  0  0  0  0  0  0  0
    6.5801    1.5894   -8.6473 H   0  0  0  0  0  0  0  0  0  0  0  0
    6.0602    2.8906   -9.7234 H   0  0  0  0  0  0  0  0  0  0  0  0
    4.0347    3.2691   -8.3254 H   0  0  0  0  0  0  0  0  0  0  0  0
    4.5605    2.0251   -7.1916 H   0  0  0  0  0  0  0  0  0  0  0  0
    4.4391    0.3102   -9.0102 H   0  0  0  0  0  0  0  0  0  0  0  0
    3.9092    1.5529  -10.1469 H   0  0  0  0  0  0  0  0  0  0  0  0
    1.8984    2.0032   -8.7252 H   0  0  0  0  0  0  0  0  0  0  0  0
    2.4290    0.7748   -7.5753 H   0  0  0  0  0  0  0  0  0  0  0  0
    2.2857   -0.9707   -9.3655 H   0  0  0  0  0  0  0  0  0  0  0  0
    1.7632    0.2555  -10.5231 H   0  0  0  0  0  0  0  0  0  0  0  0
    0.2553   -0.5279   -7.9714 H   0  0  0  0  0  0  0  0  0  0  0  0
   -0.1725   -0.9940   -9.6270 H   0  0  0  0  0  0  0  0  0  0  0  0
   -0.2708    0.7055   -9.1345 H   0  0  0  0  0  0  0  0  0  0  0  0
   14.3810    6.9066   -7.8078 H   0  0  0  0  0  0  0  0  0  0  0  0
   16.7385    6.5642   -7.7077 H   0  0  0  0  0  0  0  0  0  0  0  0
   16.8348    7.6323   -6.2958 H   0  0  0  0  0  0  0  0  0  0  0  0
   16.0379    9.5581   -7.7111 H   0  0  0  0  0  0  0  0  0  0  0  0
   15.9119    8.4846   -9.0984 H   0  0  0  0  0  0  0  0  0  0  0  0
   18.3863    7.9852   -8.8742 H   0  0  0  0  0  0  0  0  0  0  0  0
   18.4854    9.2115   -7.6073 H   0  0  0  0  0  0  0  0  0  0  0  0
   17.6259   10.9290   -9.2465 H   0  0  0  0  0  0  0  0  0  0  0  0
   17.6061    9.6984  -10.5064 H   0  0  0  0  0  0  0  0  0  0  0  0
   20.0772   10.6958   -8.9938 H   0  0  0  0  0  0  0  0  0  0  0  0
   19.6090   11.1580  -10.6211 H   0  0  0  0  0  0  0  0  0  0  0  0
   19.8830    8.7602  -11.3754 H   0  0  0  0  0  0  0  0  0  0  0  0
   20.3902    8.3252   -9.7354 H   0  0  0  0  0  0  0  0  0  0  0  0
   22.4324    8.9959  -10.1928 H   0  0  0  0  0  0  0  0  0  0  0  0
   25.0342    9.6152  -10.7713 H   0  0  0  0  0  0  0  0  0  0  0  0
   23.7605   10.5335   -9.9824 H   0  0  0  0  0  0  0  0  0  0  0  0
   25.8524   11.7363  -11.8547 H   0  0  0  0  0  0  0  0  0  0  0  0
   25.8393   11.8108  -10.1032 H   0  0  0  0  0  0  0  0  0  0  0  0
   23.6639   13.0500  -10.1495 H   0  0  0  0  0  0  0  0  0  0  0  0
   23.6664   12.9977  -11.9132 H   0  0  0  0  0  0  0  0  0  0  0  0
   25.8607   14.2162  -11.9394 H   0  0  0  0  0  0  0  0  0  0  0  0
   25.8306   14.2954  -10.1775 H   0  0  0  0  0  0  0  0  0  0  0  0
   23.7041   15.6150  -10.2692 H   0  0  0  0  0  0  0  0  0  0  0  0
   23.7291   15.5330  -12.0330 H   0  0  0  0  0  0  0  0  0  0  0  0
   25.9512   16.6936  -12.0549 H   0  0  0  0  0  0  0  0  0  0  0  0
   25.9245   16.7827  -10.2936 H   0  0  0  0  0  0  0  0  0  0  0  0
   23.8367   18.1666  -10.3967 H   0  0  0  0  0  0  0  0  0  0  0  0
   23.8642   18.0723  -12.1601 H   0  0  0  0  0  0  0  0  0  0  0  0
   26.1104   19.1901  -12.1831 H   0  0  0  0  0  0  0  0  0  0  0  0
   26.0800   19.2838  -10.4215 H   0  0  0  0  0  0  0  0  0  0  0  0
   24.0243   20.7050  -10.5252 H   0  0  0  0  0  0  0  0  0  0  0  0
   24.0393   20.6060  -12.2880 H   0  0  0  0  0  0  0  0  0  0  0  0
   26.3000   21.6931  -12.3272 H   0  0  0  0  0  0  0  0  0  0  0  0
   26.2797   21.7994  -10.5664 H   0  0  0  0  0  0  0  0  0  0  0  0
   24.2309   23.2409  -10.6757 H   0  0  0  0  0  0  0  0  0  0  0  0
   24.2446   23.1280  -12.4365 H   0  0  0  0  0  0  0  0  0  0  0  0
   26.4741   24.3521  -10.7257 H   0  0  0  0  0  0  0  0  0  0  0  0
   25.2786   25.2442  -11.6811 H   0  0  0  0  0  0  0  0  0  0  0  0
   26.4872   24.2383  -12.4959 H   0  0  0  0  0  0  0  0  0  0  0  0
   24.4952   11.2712  -13.5671 H   0  0  0  0  0  0  0  0  0  0  0  0
   23.3642   10.0776  -14.1690 H   0  0  0  0  0  0  0  0  0  0  0  0
   24.8727    8.2282  -13.3291 H   0  0  0  0  0  0  0  0  0  0  0  0
   26.0673    9.4400  -12.8806 H   0  0  0  0  0  0  0  0  0  0  0  0
   26.1594   10.2305  -15.2629 H   0  0  0  0  0  0  0  0  0  0  0  0
   24.9956    8.9795  -15.7089 H   0  0  0  0  0  0  0  0  0  0  0  0
   26.5838    7.2151  -14.8965 H   0  0  0  0  0  0  0  0  0  0  0  0
   27.7379    8.4672  -14.4346 H   0  0  0  0  0  0  0  0  0  0  0  0
   27.8746    9.2273  -16.8149 H   0  0  0  0  0  0  0  0  0  0  0  0
   26.7320    7.9671  -17.2852 H   0  0  0  0  0  0  0  0  0  0  0  0
   28.3276    6.2158  -16.4494 H   0  0  0  0  0  0  0  0  0  0  0  0
   29.4708    7.4805  -15.9914 H   0  0  0  0  0  0  0  0  0  0  0  0
   29.5690    8.2396  -18.3881 H   0  0  0  0  0  0  0  0  0  0  0  0
   28.4402    6.9572  -18.8304 H   0  0  0  0  0  0  0  0  0  0  0  0
   30.0779    5.2383  -18.0254 H   0  0  0  0  0  0  0  0  0  0  0  0
   31.2070    6.5220  -17.5872 H   0  0  0  0  0  0  0  0  0  0  0  0
   31.2614    7.2867  -19.9760 H   0  0  0  0  0  0  0  0  0  0  0  0
   30.1394    5.9975  -20.4147 H   0  0  0  0  0  0  0  0  0  0  0  0
   31.7965    4.2894  -19.6271 H   0  0  0  0  0  0  0  0  0  0  0  0
   32.9172    5.5807  -19.1887 H   0  0  0  0  0  0  0  0  0  0  0  0
   32.9833    6.3360  -21.5803 H   0  0  0  0  0  0  0  0  0  0  0  0
   31.8629    5.0445  -22.0184 H   0  0  0  0  0  0  0  0  0  0  0  0
   34.6509    4.6342  -20.8104 H   0  0  0  0  0  0  0  0  0  0  0  0
   34.1996    4.3901  -22.5067 H   0  0  0  0  0  0  0  0  0  0  0  0
   33.5237    3.3366  -21.2520 H   0  0  0  0  0  0  0  0  0  0  0  0
  1  2  1  0  0  0  0
  1 63  1  0  0  0  0
  1 64  1  0  0  0  0
  1 65  1  0  0  0  0
  2  3  1  0  0  0  0
  2 66  1  0  0  0  0
  2 67  1  0  0  0  0
  3  4  1  0  0  0  0
  3 68  1  0  0  0  0
  3 69  1  0  0  0  0
  4  5  1  0  0  0  0
  4 70  1  0  0  0  0
  4 71  1  0  0  0  0
  5  6  1  0  0  0  0
  5 72  1  0  0  0  0
  5 73  1  0  0  0  0
  6  7  1  0  0  0  0
  6 74  1  0  0  0  0
  6 75  1  0  0  0  0
  7  8  1  0  0  0  0
  7 76  1  0  0  0  0
  7 77  1  0  0  0  0
  8  9  1  0  0  0  0
  8 78  1  0  0  0  0
  8 79  1  0  0  0  0
  9 10  1  0  0  0  0
  9 80  1  0  0  0  0
  9 81  1  0  0  0  0
 10 11  1  0  0  0  0
 10 82  1  0  0  0  0
 10 83  1  0  0  0  0
 11 12  1  0  0  0  0
 11 84  1  0  0  0  0
 11 85  1  0  0  0  0
 12 13  1  0  0  0  0
 12 86  1  0  0  0  0
 12 87  1  0  0  0  0
 13 14  1  0  0  0  0
 13 26  1  0  0  0  0
 14 15  1  0  0  0  0
 14 88  1  0  0  0  0
 14 89  1  0  0  0  0
 15 16  1  0  0  0  0
 15 90  1  0  0  0  0
 15 91  1  0  0  0  0
 16 17  1  0  0  0  0
 16 92  1  0  0  0  0
 16 93  1  0  0  0  0
 17 18  1  0  0  0  0
 17 94  1  0  0  0  0
 17 95  1  0  0  0  0
 18 19  1  0  0  0  0
 18 96  1  0  0  0  0
 18 97  1  0  0  0  0
 19 20  1  0  0  0  0
 19 98  1  0  0  0  0
 19 99  1  0  0  0  0
 20 21  1  0  0  0  0
 20100  1  0  0  0  0
 20101  1  0  0  0  0
 21 22  1  0  0  0  0
 21102  1  0  0  0  0
 21103  1  0  0  0  0
 22 23  1  0  0  0  0
 22104  1  0  0  0  0
 22105  1  0  0  0  0
 23 24  1  0  0  0  0
 23106  1  0  0  0  0
 23107  1  0  0  0  0
 24 25  1  0  0  0  0
 24108  1  0  0  0  0
 24109  1  0  0  0  0
 25110  1  0  0  0  0
 25111  1  0  0  0  0
 25112  1  0  0  0  0
 26 27  2  0  0  0  0
 26 28  1  0  0  0  0
 28 29  1  0  0  0  0
 28113  1  0  0  0  0
 29 30  1  0  0  0  0
 29114  1  0  0  0  0
 29115  1  0  0  0  0
 30 31  1  0  0  0  0
 30116  1  0  0  0  0
 30117  1  0  0  0  0
 31 32  1  0  0  0  0
 31118  1  0  0  0  0
 31119  1  0  0  0  0
 32 33  1  0  0  0  0
 32120  1  0  0  0  0
 32121  1  0  0  0  0
 33 34  1  0  0  0  0
 33122  1  0  0  0  0
 33123  1  0  0  0  0
 34 35  1  0  0  0  0
 34124  1  0  0  0  0
 34125  1  0  0  0  0
 35 36  1  0  0  0  0
 35126  1  0  0  0  0
 36 37  2  0  0  0  0
 36 38  1  0  0  0  0
 38 39  1  0  0  0  0
 38 51  1  0  0  0  0
 39 40  1  0  0  0  0
 39127  1  0  0  0  0
 39128  1  0  0  0  0
 40 41  1  0  0  0  0
 40129  1  0  0  0  0
 40130  1  0  0  0  0
 41 42  1  0  0  0  0
 41131  1  0  0  0  0
 41132  1  0  0  0  0
 42 43  1  0  0  0  0
 42133  1  0  0  0  0
 42134  1  0  0  0  0
 43 44  1  0  0  0  0
 43135  1  0  0  0  0
 43136  1  0  0  0  0
 44 45  1  0  0  0  0
 44137  1  0  0  0  0
 44138  1  0  0  0  0
 45 46  1  0  0  0  0
 45139  1  0  0  0  0
 45140  1  0  0  0  0
 46 47  1  0  0  0  0
 46141  1  0  0  0  0
 46142  1  0  0  0  0
 47 48  1  0  0  0  0
 47143  1  0  0  0  0
 47144  1  0  0  0  0
 48 49  1  0  0  0  0
 48145  1  0  0  0  0
 48146  1  0  0  0  0
 49 50  1  0  0  0  0
 49147  1  0  0  0  0
 49148  1  0  0  0  0
 50149  1  0  0  0  0
 50150  1  0  0  0  0
 50151  1  0  0  0  0
 51 52  1  0  0  0  0
 51152  1  0  0  0  0
 51153  1  0  0  0  0
 52 53  1  0  0  0  0
 52154  1  0  0  0  0
 52155  1  0  0  0  0
 53 54  1  0  0  0  0
 53156  1  0  0  0  0
 53157  1  0  0  0  0
 54 55  1  0  0  0  0
 54158  1  0  0  0  0
 54159  1  0  0  0  0
 55 56  1  0  0  0  0
 55160  1  0  0  0  0
 55161  1  0  0  0  0
 56 57  1  0  0  0  0
 56162  1  0  0  0  0
 56163  1  0  0  0  0
 57 58  1  0  0  0  0
 57164  1  0  0  0  0
 57165  1  0  0  0  0
 58 59  1  0  0  0  0
 58166  1  0  0  0  0
 58167  1  0  0  0  0
 59 60  1  0  0  0  0
 59168  1  0  0  0  0
 59169  1  0  0  0  0
 60 61  1  0  0  0  0
 60170  1  0  0  0  0
 60171  1  0  0  0  0
 61 62  1  0  0  0  0
 61172  1  0  0  0  0
 61173  1  0  0  0  0
 62174  1  0  0  0  0
 62175  1  0  0  0  0
 62176  1  0  0  0  0
M  END
