
 OpenBabel10072620123D

 19 19  0  0  0  0  0  0  0  0999 V2000
    1.1396   -0.3111   -0.0826 C   0  0  0  0  0  0  0  0  0  0  0  0
    2.5593   -0.4641   -0.0973 O   0  0  0  0  0  0  0  0  0  0  0  0
    3.1202   -0.2440   -1.3118 C   0  0  0  0  0  0  0  0  0  0  0  0
    2.5375    0.0576   -2.3403 O   0  0  0  0  0  0  0  0  0  0  0  0
    4.5792   -0.4310   -1.1840 C   0  0  0  0  0  0  0  0  0  0  0  0
    5.3619   -0.2622   -2.2596 C   0  0  0  0  0  0  0  0  0  0  0  0
    6.7630   -0.4295   -2.1791 C   0  0  0  0  0  0  0  0  0  0  0  0
    7.6843   -0.7574   -1.2041 C   0  0  0  0  0  0  0  0  0  0  0  0
    8.9599   -0.7729   -1.7092 N   0  0  0  0  0  0  0  0  0  0  0  0
    8.8314   -0.4595   -2.9766 C   0  0  0  0  0  0  0  0  0  0  0  0
    7.5241   -0.2425   -3.3090 N   0  0  0  0  0  0  0  0  0  0  0  0
    0.7883   -0.5076    0.9341 H   0  0  0  0  0  0  0  0  0  0  0  0
    0.6689   -1.0331   -0.7574 H   0  0  0  0  0  0  0  0  0  0  0  0
    0.8613    0.7122   -0.3537 H   0  0  0  0  0  0  0  0  0  0  0  0
    4.9573   -0.7007   -0.2062 H   0  0  0  0  0  0  0  0  0  0  0  0
    4.9116    0.0096   -3.2135 H   0  0  0  0  0  0  0  0  0  0  0  0
    7.5012   -0.9845   -0.1618 H   0  0  0  0  0  0  0  0  0  0  0  0
    9.6361   -0.3748   -3.6947 H   0  0  0  0  0  0  0  0  0  0  0  0
    7.1874    0.0108   -4.2272 H   0  0  0  0  0  0  0  0  0  0  0  0
  1  2  1  0  0  0  0
  1 12  1  0  0  0  0
  1 13  1  0  0  0  0
  1 14  1  0  0  0  0
  2  3  1  0  0  0  0
  3  4  2  0  0  0  0
  3  5  1  0  0  0  0
  5  6  2  0  0  0  0
  5 15  1  0  0  0  0
  6  7  1  0  0  0  0
  6 16  1  0  0  0  0
  7  8  2  0  0  0  0
  7 11  1  0  0  0  0
  8  9  1  0  0  0  0
  8 17  1  0  0  0  0
  9 10  2  0  0  0  0
 10 11  1  0  0  0  0
 10 18  1  0  0  0  0
 11 19  1  0  0  0  0
M  END
