
 OpenBabel10072620023D

 45 48  0  0  0  0  0  0  0  0999 V2000
   -4.4934    0.0542    6.6048 C   0  0  0  0  0  0  0  0  0  0  0  0
   -4.3573    0.5857    5.2086 C   0  0  0  0  0  0  0  0  0  0  0  0
   -3.2083    0.3308    4.4505 C   0  0  0  0  0  0  0  0  0  0  0  0
   -3.0850    0.8468    3.1591 C   0  0  0  0  0  0  0  0  0  0  0  0
   -4.1119    1.6197    2.6206 C   0  0  0  0  0  0  0  0  0  0  0  0
   -5.2700    1.8618    3.3548 C   0  0  0  0  0  0  0  0  0  0  0  0
   -5.3896    1.3500    4.6484 C   0  0  0  0  0  0  0  0  0  0  0  0
   -3.9891    2.1572    1.3114 N   0  0  0  0  0  0  0  0  0  0  0  0
   -4.4132    1.1750    0.0032 S   0  0  0  0  0  0  0  0  0  0  0  0
   -3.9228    1.8516   -1.1793 O   0  0  0  0  0  0  0  0  0  0  0  0
   -4.0405   -0.1936    0.2877 O   0  0  0  0  0  0  0  0  0  0  0  0
   -6.1822    1.2961   -0.0354 C   0  0  0  0  0  0  0  0  0  0  0  0
   -6.9649    0.1493    0.1133 C   0  0  0  0  0  0  0  0  0  0  0  0
   -8.3621    0.2425    0.0340 C   0  0  0  0  0  0  0  0  0  0  0  0
   -8.9671    1.5015   -0.1340 C   0  0  0  0  0  0  0  0  0  0  0  0
   -8.1697    2.6454   -0.3002 C   0  0  0  0  0  0  0  0  0  0  0  0
   -6.7741    2.5395   -0.2667 C   0  0  0  0  0  0  0  0  0  0  0  0
   -8.8308    3.9561   -0.6128 C   0  0  0  0  0  0  0  0  0  0  0  0
  -10.1354    4.0674    0.1456 C   0  0  0  0  0  0  0  0  0  0  0  0
  -11.0216    2.8630   -0.0768 C   0  0  0  0  0  0  0  0  0  0  0  0
  -12.2476    2.9860   -0.0623 O   0  0  0  0  0  0  0  0  0  0  0  0
  -10.3823    1.6291   -0.1626 N   0  0  0  0  0  0  0  0  0  0  0  0
  -11.2128    0.4313   -0.1007 C   0  0  0  0  0  0  0  0  0  0  0  0
  -10.5101   -0.8245   -0.5901 C   0  0  0  0  0  0  0  0  0  0  0  0
   -9.2005   -1.0017    0.1621 C   0  0  0  0  0  0  0  0  0  0  0  0
   -3.5985   -0.4950    6.9150 H   0  0  0  0  0  0  0  0  0  0  0  0
   -5.3475   -0.6269    6.6684 H   0  0  0  0  0  0  0  0  0  0  0  0
   -4.6377    0.8809    7.3078 H   0  0  0  0  0  0  0  0  0  0  0  0
   -2.4008   -0.2734    4.8581 H   0  0  0  0  0  0  0  0  0  0  0  0
   -2.1920    0.6302    2.5793 H   0  0  0  0  0  0  0  0  0  0  0  0
   -6.0736    2.4637    2.9403 H   0  0  0  0  0  0  0  0  0  0  0  0
   -6.2920    1.5529    5.2209 H   0  0  0  0  0  0  0  0  0  0  0  0
   -3.1337    2.6720    1.1038 H   0  0  0  0  0  0  0  0  0  0  0  0
   -6.4935   -0.8189    0.2733 H   0  0  0  0  0  0  0  0  0  0  0  0
   -6.1506    3.4176   -0.4234 H   0  0  0  0  0  0  0  0  0  0  0  0
   -9.0088    4.0078   -1.6941 H   0  0  0  0  0  0  0  0  0  0  0  0
   -8.1805    4.7950   -0.3390 H   0  0  0  0  0  0  0  0  0  0  0  0
   -9.9572    4.1534    1.2248 H   0  0  0  0  0  0  0  0  0  0  0  0
  -10.6727    4.9640   -0.1825 H   0  0  0  0  0  0  0  0  0  0  0  0
  -12.1205    0.5933   -0.6944 H   0  0  0  0  0  0  0  0  0  0  0  0
  -11.5301    0.3129    0.9433 H   0  0  0  0  0  0  0  0  0  0  0  0
  -10.3126   -0.7393   -1.6668 H   0  0  0  0  0  0  0  0  0  0  0  0
  -11.1531   -1.6998   -0.4452 H   0  0  0  0  0  0  0  0  0  0  0  0
   -8.6690   -1.8666   -0.2519 H   0  0  0  0  0  0  0  0  0  0  0  0
   -9.3901   -1.1967    1.2244 H   0  0  0  0  0  0  0  0  0  0  0  0
  1  2  1  0  0  0  0
  1 26  1  0  0  0  0
  1 27  1  0  0  0  0
  1 28  1  0  0  0  0
  2  3  2  0  0  0  0
  2  7  1  0  0  0  0
  3  4  1  0  0  0  0
  3 29  1  0  0  0  0
  4  5  2  0  0  0  0
  4 30  1  0  0  0  0
  5  6  1  0  0  0  0
  5  8  1  0  0  0  0
  6  7  2  0  0  0  0
  6 31  1  0  0  0  0
  7 32  1  0  0  0  0
  8  9  1  0  0  0  0
  8 33  1  0  0  0  0
  9 10  2  0  0  0  0
  9 11  2  0  0  0  0
  9 12  1  0  0  0  0
 12 13  2  0  0  0  0
 12 17  1  0  0  0  0
 13 14  1  0  0  0  0
 13 34  1  0  0  0  0
 14 15  2  0  0  0  0
 14 25  1  0  0  0  0
 15 16  1  0  0  0  0
 15 22  1  0  0  0  0
 16 17  2  0  0  0  0
 16 18  1  0  0  0  0
 17 35  1  0  0  0  0
 18 19  1  0  0  0  0
 18 36  1  0  0  0  0
 18 37  1  0  0  0  0
 19 20  1  0  0  0  0
 19 38  1  0  0  0  0
 19 39  1  0  0  0  0
 20 21  2  0  0  0  0
 20 22  1  0  0  0  0
 22 23  1  0  0  0  0
 23 24  1  0  0  0  0
 23 40  1  0  0  0  0
 23 41  1  0  0  0  0
 24 25  1  0  0  0  0
 24 42  1  0  0  0  0
 24 43  1  0  0  0  0
 25 44  1  0  0  0  0
 25 45  1  0  0  0  0
M  END
