
 OpenBabel10072616413D

 90 92  0  0  1  0  0  0  0  0999 V2000
   -0.5656   -1.2629   -1.6642 C   0  0  0  0  0  0  0  0  0  0  0  0
   -1.0265   -2.4997   -2.4181 C   0  0  0  0  0  0  0  0  0  0  0  0
   -0.8160   -3.7297   -1.5503 C   0  0  0  0  0  0  0  0  0  0  0  0
   -2.5020   -2.3656   -2.7576 C   0  0  0  0  0  0  0  0  0  0  0  0
   -3.2533   -2.2340   -1.5598 O   0  0  0  0  0  0  0  0  0  0  0  0
   -4.9329   -2.0837   -1.9461 P   0  0  3  0  0  0  0  0  0  0  0  0
   -5.0872   -3.6227   -1.8739 O   0  0  0  0  0  0  0  0  0  0  0  0
   -5.1731   -1.1228   -0.5277 O   0  0  0  0  0  0  0  0  0  0  0  0
   -6.6125   -1.9334   -2.3324 O   0  0  0  0  0  0  0  0  0  0  0  0
   -7.5246   -1.7431   -0.8748 P   0  0  3  0  0  0  0  0  0  0  0  0
   -6.2189   -1.8255   -0.0469 O   0  0  0  0  0  0  0  0  0  0  0  0
   -8.0988   -0.2100   -1.4343 O   0  0  0  0  0  0  0  0  0  0  0  0
   -8.4368   -1.5527    0.5828 O   0  0  0  0  0  0  0  0  0  0  0  0
   -9.2892   -2.6749    0.7577 C   0  0  0  0  0  0  0  0  0  0  0  0
  -10.3300   -3.2200    1.7221 C   0  0  2  0  0  0  0  0  0  0  0  0
   -9.7272   -3.4089    3.0945 C   0  0  2  0  0  0  0  0  0  0  0  0
  -10.6305   -4.4680    3.7148 C   0  0  2  0  0  0  0  0  0  0  0  0
  -10.9140   -5.3548    2.4980 C   0  0  1  0  0  0  0  0  0  0  0  0
  -10.8534   -4.5363    1.3493 O   0  0  0  0  0  0  0  0  0  0  0  0
   -9.9276   -6.4412    2.4102 N   0  0  0  0  0  0  0  0  0  0  0  0
   -9.1188   -6.6260    1.3867 C   0  0  0  0  0  0  0  0  0  0  0  0
   -8.3253   -7.6645    1.6041 N   0  0  0  0  0  0  0  0  0  0  0  0
   -8.6135   -8.1783    2.7989 C   0  0  0  0  0  0  0  0  0  0  0  0
   -8.1254   -9.2583    3.5640 C   0  0  0  0  0  0  0  0  0  0  0  0
   -8.6628   -9.5064    4.7781 N   0  0  0  0  0  0  0  0  0  0  0  0
   -9.6696   -8.7437    5.2799 C   0  0  0  0  0  0  0  0  0  0  0  0
  -10.1738   -7.6934    4.5945 N   0  0  0  0  0  0  0  0  0  0  0  0
   -9.6637   -7.3802    3.3331 C   0  0  0  0  0  0  0  0  0  0  0  0
   -7.0423  -10.1057    3.0448 N   0  0  0  0  0  0  0  0  0  0  0  0
  -11.8384   -3.8422    4.1039 O   0  0  0  0  0  0  0  0  0  0  0  0
   -9.6634   -2.2093    3.8516 O   0  0  0  0  0  0  0  0  0  0  0  0
   -8.9739   -2.4198    5.4243 P   0  0  0  0  0  0  0  0  0  0  0  0
   -7.6588   -2.9232    4.7803 O   0  0  0  0  0  0  0  0  0  0  0  0
   -9.1899   -0.7335    5.7447 O   0  0  0  0  0  0  0  0  0  0  0  0
   -8.2843   -2.6303    6.9969 O   0  0  0  0  0  0  0  0  0  0  0  0
   -0.2145   -2.6400   -3.6954 C   0  0  2  0  0  0  0  0  0  0  0  0
   -0.4187   -1.4090   -4.5633 C   0  0  0  0  0  0  0  0  0  0  0  0
   -1.3574   -1.3734   -5.4193 O   0  0  0  0  0  0  0  0  0  0  0  0
    0.4306   -0.2275   -4.3543 N   0  0  0  0  0  0  0  0  0  0  0  0
    0.1953    0.9946   -5.1366 C   0  0  0  0  0  0  0  0  0  0  0  0
   -0.7893    1.8869   -4.3986 C   0  0  0  0  0  0  0  0  0  0  0  0
   -1.0326    3.1506   -5.2075 C   0  0  0  0  0  0  0  0  0  0  0  0
   -0.7572    4.2869   -4.7093 O   0  0  0  0  0  0  0  0  0  0  0  0
   -1.5864    3.0583   -6.5661 N   0  0  0  0  0  0  0  0  0  0  0  0
   -1.8234    4.2805   -7.3477 C   0  0  0  0  0  0  0  0  0  0  0  0
   -0.5783    4.6168   -8.1522 C   0  0  0  0  0  0  0  0  0  0  0  0
   -0.1965    3.2481   -9.2734 S   0  0  0  0  0  0  0  0  0  0  0  0
   -1.5891    2.9838  -10.3990 C   0  0  0  0  0  0  0  0  0  0  0  0
   -2.6242    3.7160  -10.3121 O   0  0  0  0  0  0  0  0  0  0  0  0
   -1.5204    1.8862  -11.4483 C   0  0  0  0  0  0  0  0  0  0  0  0
   -2.5664    1.6887  -12.2954 C   0  0  0  0  0  0  0  0  0  0  0  0
   -0.6416   -3.7944   -4.4033 O   0  0  0  0  0  0  0  0  0  0  0  0
   -1.1352   -1.1609   -0.7642 H   0  0  0  0  0  0  0  0  0  0  0  0
   -0.7090   -0.3976   -2.2770 H   0  0  0  0  0  0  0  0  0  0  0  0
    0.4718   -1.3595   -1.4207 H   0  0  0  0  0  0  0  0  0  0  0  0
   -1.3867   -3.6332   -0.6504 H   0  0  0  0  0  0  0  0  0  0  0  0
    0.2218   -3.8208   -1.3064 H   0  0  0  0  0  0  0  0  0  0  0  0
   -1.1350   -4.6010   -2.0832 H   0  0  0  0  0  0  0  0  0  0  0  0
   -2.8264   -3.2362   -3.2883 H   0  0  0  0  0  0  0  0  0  0  0  0
   -2.6502   -1.4997   -3.3685 H   0  0  0  0  0  0  0  0  0  0  0  0
   -4.3301   -1.0226   -0.0584 H   0  0  0  0  0  0  0  0  0  0  0  0
   -7.7239   -0.0241   -2.3094 H   0  0  0  0  0  0  0  0  0  0  0  0
   -8.5827   -3.4783    0.7377 H   0  0  0  0  0  0  0  0  0  0  0  0
  -10.0385   -2.2596    0.1166 H   0  0  0  0  0  0  0  0  0  0  0  0
  -11.1190   -2.4976    1.7011 H   0  0  0  0  0  0  0  0  0  0  0  0
   -8.7001   -3.7070    3.0599 H   0  0  0  0  0  0  0  0  0  0  0  0
  -10.2226   -4.9788    4.5619 H   0  0  0  0  0  0  0  0  0  0  0  0
  -11.8805   -5.8059    2.5832 H   0  0  0  0  0  0  0  0  0  0  0  0
   -9.1053   -6.0434    0.5350 H   0  0  0  0  0  0  0  0  0  0  0  0
  -10.0591   -8.9723    6.2078 H   0  0  0  0  0  0  0  0  0  0  0  0
   -6.6540   -9.9208    2.1592 H   0  0  0  0  0  0  0  0  0  0  0  0
   -6.7052  -10.8583    3.5827 H   0  0  0  0  0  0  0  0  0  0  0  0
  -12.2196   -3.3747    3.3442 H   0  0  0  0  0  0  0  0  0  0  0  0
   -9.5948   -0.3071    4.9733 H   0  0  0  0  0  0  0  0  0  0  0  0
   -8.0412   -3.5611    7.1214 H   0  0  0  0  0  0  0  0  0  0  0  0
    0.8226   -2.7354   -3.4500 H   0  0  0  0  0  0  0  0  0  0  0  0
    1.1570   -0.2547   -3.6904 H   0  0  0  0  0  0  0  0  0  0  0  0
   -0.2074    0.7338   -6.0930 H   0  0  0  0  0  0  0  0  0  0  0  0
    1.1198    1.5167   -5.2693 H   0  0  0  0  0  0  0  0  0  0  0  0
   -0.3865    2.1477   -3.4422 H   0  0  0  0  0  0  0  0  0  0  0  0
   -1.7137    1.3648   -4.2659 H   0  0  0  0  0  0  0  0  0  0  0  0
   -1.7986    2.1780   -6.9524 H   0  0  0  0  0  0  0  0  0  0  0  0
   -2.0491    5.0896   -6.6850 H   0  0  0  0  0  0  0  0  0  0  0  0
   -2.6466    4.1243   -8.0132 H   0  0  0  0  0  0  0  0  0  0  0  0
    0.2449    4.7730   -7.4868 H   0  0  0  0  0  0  0  0  0  0  0  0
   -0.7508    5.5064   -8.7212 H   0  0  0  0  0  0  0  0  0  0  0  0
   -0.6804    1.2909  -11.5181 H   0  0  0  0  0  0  0  0  0  0  0  0
   -3.4065    2.2840  -12.2256 H   0  0  0  0  0  0  0  0  0  0  0  0
   -2.5198    0.9435  -13.0078 H   0  0  0  0  0  0  0  0  0  0  0  0
   -1.5818   -3.7079   -4.6257 H   0  0  0  0  0  0  0  0  0  0  0  0
  1  2  1  0  0  0  0
  1 53  1  0  0  0  0
  1 54  1  0  0  0  0
  1 55  1  0  0  0  0
  2  3  1  0  0  0  0
  2  4  1  0  0  0  0
  3 56  1  0  0  0  0
  3 57  1  0  0  0  0
  3 58  1  0  0  0  0
  4  5  1  0  0  0  0
  4 59  1  0  0  0  0
  4 60  1  0  0  0  0
  5  6  1  0  0  0  0
  6  7  2  0  0  0  0
  6  8  1  0  0  0  0
  6  9  1  0  0  0  0
  8 61  1  0  0  0  0
  9 10  1  0  0  0  0
 10 11  2  0  0  0  0
 10 12  1  0  0  0  0
 10 13  1  0  0  0  0
 12 62  1  0  0  0  0
 13 14  1  0  0  0  0
 14 63  1  0  0  0  0
 14 64  1  0  0  0  0
 15 16  1  0  0  0  0
 15 19  1  0  0  0  0
 15 14  1  0  0  0  0
 15 65  1  1  0  0  0
 16 17  1  0  0  0  0
 16 31  1  0  0  0  0
 16 66  1  6  0  0  0
 17 18  1  0  0  0  0
 17 30  1  0  0  0  0
 17 67  1  1  0  0  0
 18 19  1  0  0  0  0
 18 20  1  0  0  0  0
 18 68  1  1  0  0  0
 20 21  1  0  0  0  0
 20 28  1  0  0  0  0
 21 22  2  0  0  0  0
 21 69  1  0  0  0  0
 22 23  1  0  0  0  0
 23 24  2  0  0  0  0
 23 28  1  0  0  0  0
 24 25  1  0  0  0  0
 24 29  1  0  0  0  0
 25 26  2  0  0  0  0
 26 27  1  0  0  0  0
 26 70  1  0  0  0  0
 27 28  2  0  0  0  0
 29 71  1  0  0  0  0
 29 72  1  0  0  0  0
 30 73  1  0  0  0  0
 31 32  1  0  0  0  0
 32 33  2  0  0  0  0
 32 34  1  0  0  0  0
 32 35  1  0  0  0  0
 34 74  1  0  0  0  0
 35 75  1  0  0  0  0
 36 52  1  0  0  0  0
 36 37  1  0  0  0  0
 36  2  1  0  0  0  0
 36 76  1  1  0  0  0
 37 38  2  0  0  0  0
 37 39  1  0  0  0  0
 39 40  1  0  0  0  0
 39 77  1  0  0  0  0
 40 41  1  0  0  0  0
 40 78  1  0  0  0  0
 40 79  1  0  0  0  0
 41 42  1  0  0  0  0
 41 80  1  0  0  0  0
 41 81  1  0  0  0  0
 42 43  2  0  0  0  0
 42 44  1  0  0  0  0
 44 45  1  0  0  0  0
 44 82  1  0  0  0  0
 45 46  1  0  0  0  0
 45 83  1  0  0  0  0
 45 84  1  0  0  0  0
 46 47  1  0  0  0  0
 46 85  1  0  0  0  0
 46 86  1  0  0  0  0
 47 48  1  0  0  0  0
 48 49  2  0  0  0  0
 48 50  1  0  0  0  0
 50 51  2  0  0  0  0
 50 87  1  0  0  0  0
 51 88  1  0  0  0  0
 51 89  1  0  0  0  0
 52 90  1  0  0  0  0
M  END
