
 OpenBabel10072619443D

 54 56  0  0  1  0  0  0  0  0999 V2000
    6.6033    4.1837   -2.8540 C   0  0  0  0  0  0  0  0  0  0  0  0
    5.4562    4.8231   -2.0723 C   0  0  3  0  0  0  0  0  0  0  0  0
    4.1254    4.0578   -2.2365 C   0  0  0  0  0  0  0  0  0  0  0  0
    3.4976    4.3192   -3.5491 N   0  0  0  0  0  0  0  0  0  0  0  0
    3.4079    5.7647   -3.8600 C   0  0  0  0  0  0  0  0  0  0  0  0
    4.7795    6.4457   -3.6929 C   0  0  3  0  0  0  0  0  0  0  0  0
    5.3193    6.2195   -2.3811 O   0  0  0  0  0  0  0  0  0  0  0  0
    4.6629    7.9536   -3.8825 C   0  0  0  0  0  0  0  0  0  0  0  0
    2.4702    3.5180   -3.9664 C   0  0  0  0  0  0  0  0  0  0  0  0
    2.0320    2.2270   -3.7431 C   0  0  0  0  0  0  0  0  0  0  0  0
    0.8988    1.9601   -4.4780 N   0  0  0  0  0  0  0  0  0  0  0  0
    0.6594    3.0721   -5.1526 C   0  0  0  0  0  0  0  0  0  0  0  0
    1.5922    4.0522   -4.8741 O   0  0  0  0  0  0  0  0  0  0  0  0
   -0.4257    3.2549   -6.0539 C   0  0  0  0  0  0  0  0  0  0  0  0
   -0.6245    4.4174   -6.6935 C   0  0  0  0  0  0  0  0  0  0  0  0
   -1.7240    4.6500   -7.6400 C   0  0  0  0  0  0  0  0  0  0  0  0
   -3.0213    4.1701   -7.4186 C   0  0  0  0  0  0  0  0  0  0  0  0
   -4.0649    4.4169   -8.3312 C   0  0  0  0  0  0  0  0  0  0  0  0
   -3.8134    5.1949   -9.4808 C   0  0  0  0  0  0  0  0  0  0  0  0
   -2.5175    5.7210   -9.6637 C   0  0  0  0  0  0  0  0  0  0  0  0
   -1.4850    5.4305   -8.7679 C   0  0  0  0  0  0  0  0  0  0  0  0
   -2.1306    6.4912  -10.7358 O   0  0  0  0  0  0  0  0  0  0  0  0
   -2.9645    7.6274  -10.9569 C   0  0  0  0  0  0  0  0  0  0  0  0
   -4.6945    5.4961  -10.4877 O   0  0  0  0  0  0  0  0  0  0  0  0
   -6.0151    4.9813  -10.4598 C   0  0  0  0  0  0  0  0  0  0  0  0
   -5.3382    3.9516   -8.1267 O   0  0  0  0  0  0  0  0  0  0  0  0
   -5.5524    2.9873   -7.1048 C   0  0  0  0  0  0  0  0  0  0  0  0
    2.5962    1.2238   -2.9032 C   0  0  0  0  0  0  0  0  0  0  0  0
    3.0642    0.4253   -2.2006 N   0  0  0  0  0  0  0  0  0  0  0  0
    6.8236    3.1826   -2.4694 H   0  0  0  0  0  0  0  0  0  0  0  0
    7.5077    4.7957   -2.7737 H   0  0  0  0  0  0  0  0  0  0  0  0
    6.3741    4.0866   -3.9193 H   0  0  0  0  0  0  0  0  0  0  0  0
    5.7334    4.7805   -1.0122 H   0  0  0  0  0  0  0  0  0  0  0  0
    3.4284    4.3816   -1.4530 H   0  0  0  0  0  0  0  0  0  0  0  0
    4.3278    2.9941   -2.0884 H   0  0  0  0  0  0  0  0  0  0  0  0
    2.6736    6.2212   -3.1835 H   0  0  0  0  0  0  0  0  0  0  0  0
    3.0724    5.9276   -4.8913 H   0  0  0  0  0  0  0  0  0  0  0  0
    5.4832    6.0616   -4.4402 H   0  0  0  0  0  0  0  0  0  0  0  0
    4.0045    8.3962   -3.1266 H   0  0  0  0  0  0  0  0  0  0  0  0
    4.2753    8.2020   -4.8753 H   0  0  0  0  0  0  0  0  0  0  0  0
    5.6427    8.4286   -3.7621 H   0  0  0  0  0  0  0  0  0  0  0  0
   -1.0737    2.3996   -6.2096 H   0  0  0  0  0  0  0  0  0  0  0  0
    0.0542    5.2559   -6.5488 H   0  0  0  0  0  0  0  0  0  0  0  0
   -3.2078    3.6083   -6.5087 H   0  0  0  0  0  0  0  0  0  0  0  0
   -0.4930    5.8303   -8.9662 H   0  0  0  0  0  0  0  0  0  0  0  0
   -2.3265    8.4422  -11.3132 H   0  0  0  0  0  0  0  0  0  0  0  0
   -3.4678    7.9748  -10.0471 H   0  0  0  0  0  0  0  0  0  0  0  0
   -3.6930    7.4100  -11.7432 H   0  0  0  0  0  0  0  0  0  0  0  0
   -6.5144    5.3107  -11.3767 H   0  0  0  0  0  0  0  0  0  0  0  0
   -6.5839    5.3949   -9.6209 H   0  0  0  0  0  0  0  0  0  0  0  0
   -6.0207    3.8869  -10.4680 H   0  0  0  0  0  0  0  0  0  0  0  0
   -6.5917    2.6519   -7.1761 H   0  0  0  0  0  0  0  0  0  0  0  0
   -5.4154    3.4326   -6.1145 H   0  0  0  0  0  0  0  0  0  0  0  0
   -4.9100    2.1112   -7.2421 H   0  0  0  0  0  0  0  0  0  0  0  0
  1  2  1  0  0  0  0
  1 30  1  0  0  0  0
  1 31  1  0  0  0  0
  1 32  1  0  0  0  0
  2  3  1  0  0  0  0
  2  7  1  0  0  0  0
  2 33  1  0  0  0  0
  3  4  1  0  0  0  0
  3 34  1  0  0  0  0
  3 35  1  0  0  0  0
  4  5  1  0  0  0  0
  4  9  1  0  0  0  0
  5  6  1  0  0  0  0
  5 36  1  0  0  0  0
  5 37  1  0  0  0  0
  6  7  1  0  0  0  0
  6  8  1  0  0  0  0
  6 38  1  0  0  0  0
  8 39  1  0  0  0  0
  8 40  1  0  0  0  0
  8 41  1  0  0  0  0
  9 10  2  0  0  0  0
  9 13  1  0  0  0  0
 10 11  1  0  0  0  0
 10 28  1  0  0  0  0
 11 12  2  0  0  0  0
 12 13  1  0  0  0  0
 12 14  1  0  0  0  0
 14 15  2  0  0  0  0
 14 42  1  0  0  0  0
 15 16  1  0  0  0  0
 15 43  1  0  0  0  0
 16 17  2  0  0  0  0
 16 21  1  0  0  0  0
 17 18  1  0  0  0  0
 17 44  1  0  0  0  0
 18 19  2  0  0  0  0
 18 26  1  0  0  0  0
 19 20  1  0  0  0  0
 19 24  1  0  0  0  0
 20 21  2  0  0  0  0
 20 22  1  0  0  0  0
 21 45  1  0  0  0  0
 22 23  1  0  0  0  0
 23 46  1  0  0  0  0
 23 47  1  0  0  0  0
 23 48  1  0  0  0  0
 24 25  1  0  0  0  0
 25 49  1  0  0  0  0
 25 50  1  0  0  0  0
 25 51  1  0  0  0  0
 26 27  1  0  0  0  0
 27 52  1  0  0  0  0
 27 53  1  0  0  0  0
 27 54  1  0  0  0  0
 28 29  3  0  0  0  0
M  END
