
 OpenBabel10072619293D

248256  0  0  1  0  0  0  0  0999 V2000
    4.6644    1.0052    3.4126 C   0  0  0  0  0  0  0  0  0  0  0  0
    5.6413   -0.1230    3.1306 C   0  0  3  0  0  0  0  0  0  0  0  0
    5.0119   -1.4899    3.3488 C   0  0  0  0  0  0  0  0  0  0  0  0
    3.8772   -1.5871    2.5350 O   0  0  0  0  0  0  0  0  0  0  0  0
    3.2492   -2.8505    2.7128 C   0  0  0  0  0  0  0  0  0  0  0  0
    2.2470   -3.0108    4.2102 C   0  0  3  0  0  0  0  0  0  0  0  0
    0.8197   -4.3822    4.5209 C   0  0  3  0  0  0  0  0  0  0  0  0
    1.0632   -4.2809    3.1032 C   0  0  3  0  0  0  0  0  0  0  0  0
    0.1456   -2.8448    3.5819 C   0  0  3  0  0  0  0  0  0  0  0  0
    0.6624   -1.5791    3.0714 C   0  0  3  0  0  0  0  0  0  0  0  0
    1.7275   -1.5505    4.1101 O   0  0  0  0  0  0  0  0  0  0  0  0
   -0.4163   -0.6035    3.1662 O   0  0  0  0  0  0  0  0  0  0  0  0
   -1.6303   -0.6809    2.2401 C   0  0  3  0  0  0  0  0  0  0  0  0
   -2.3865   -2.0425    2.2108 C   0  0  3  0  0  0  0  0  0  0  0  0
   -1.4537   -2.7946    1.4937 O   0  0  0  0  0  0  0  0  0  0  0  0
   -1.3450   -2.5231    0.1199 C   0  0  3  0  0  0  0  0  0  0  0  0
   -0.5961   -1.2276   -0.0350 C   0  0  3  0  0  0  0  0  0  0  0  0
   -1.2625   -0.1958    0.8192 C   0  0  3  0  0  0  0  0  0  0  0  0
   -0.5091    0.9984    0.9187 O   0  0  0  0  0  0  0  0  0  0  0  0
   -0.3313   -0.8992   -1.3848 O   0  0  0  0  0  0  0  0  0  0  0  0
   -2.2306   -3.3448   -0.6451 O   0  0  0  0  0  0  0  0  0  0  0  0
   -1.9307   -4.8385   -0.6070 C   0  0  3  0  0  0  0  0  0  0  0  0
   -2.2520   -5.7439    0.6414 C   0  0  3  0  0  0  0  0  0  0  0  0
   -2.0221   -4.9927    1.7023 O   0  0  0  0  0  0  0  0  0  0  0  0
   -0.6674   -5.1118    1.9802 C   0  0  3  0  0  0  0  0  0  0  0  0
    0.1680   -4.8162    0.6900 C   0  0  3  0  0  0  0  0  0  0  0  0
   -0.4242   -5.1305   -0.7007 C   0  0  3  0  0  0  0  0  0  0  0  0
    0.1357   -4.3620   -1.7514 O   0  0  0  0  0  0  0  0  0  0  0  0
    1.1381   -3.7706    0.6971 O   0  0  0  0  0  0  0  0  0  0  0  0
   -0.1080   -6.1333    2.9311 O   0  0  0  0  0  0  0  0  0  0  0  0
   -0.4271   -6.2182    4.4584 C   0  0  3  0  0  0  0  0  0  0  0  0
   -1.7169   -6.1781    3.6477 C   0  0  3  0  0  0  0  0  0  0  0  0
   -2.7353   -4.5036    3.6643 O   0  0  0  0  0  0  0  0  0  0  0  0
   -3.2172   -3.6662    5.2019 C   0  0  3  0  0  0  0  0  0  0  0  0
   -1.9335   -3.7654    6.2757 C   0  0  3  0  0  0  0  0  0  0  0  0
   -0.7364   -5.2799    6.2339 C   0  0  3  0  0  0  0  0  0  0  0  0
    0.4613   -4.8011    6.8542 O   0  0  0  0  0  0  0  0  0  0  0  0
   -2.0807   -3.2127    7.5629 O   0  0  0  0  0  0  0  0  0  0  0  0
   -4.5771   -3.7948    6.1229 O   0  0  0  0  0  0  0  0  0  0  0  0
   -6.0628   -4.5866    6.1825 C   0  0  3  0  0  0  0  0  0  0  0  0
   -6.4866   -5.7179    5.1864 C   0  0  3  0  0  0  0  0  0  0  0  0
   -6.1156   -5.4322    3.8710 O   0  0  0  0  0  0  0  0  0  0  0  0
   -6.8394   -4.3620    3.3742 C   0  0  3  0  0  0  0  0  0  0  0  0
   -6.8599   -3.1998    4.4205 C   0  0  3  0  0  0  0  0  0  0  0  0
   -7.0387   -3.5409    5.9091 C   0  0  3  0  0  0  0  0  0  0  0  0
   -6.6707   -2.4829    6.7931 O   0  0  0  0  0  0  0  0  0  0  0  0
   -7.8990   -2.3089    4.0818 O   0  0  0  0  0  0  0  0  0  0  0  0
   -8.1376   -4.7555    2.9522 O   0  0  0  0  0  0  0  0  0  0  0  0
   -8.2965   -5.7497    1.9216 C   0  0  3  0  0  0  0  0  0  0  0  0
   -7.3800   -6.9393    1.8256 C   0  0  3  0  0  0  0  0  0  0  0  0
   -6.1337   -6.4044    1.3902 O   0  0  0  0  0  0  0  0  0  0  0  0
   -6.0115   -6.0364    0.0557 C   0  0  3  0  0  0  0  0  0  0  0  0
   -6.9790   -4.8371   -0.0535 C   0  0  3  0  0  0  0  0  0  0  0  0
   -8.3662   -5.1688    0.4972 C   0  0  3  0  0  0  0  0  0  0  0  0
   -9.2539   -4.0649    0.5295 O   0  0  0  0  0  0  0  0  0  0  0  0
   -6.9846   -4.2980   -1.3589 O   0  0  0  0  0  0  0  0  0  0  0  0
   -6.0800   -7.1535   -0.9139 O   0  0  0  0  0  0  0  0  0  0  0  0
   -5.3402   -8.5000   -0.8279 C   0  0  3  0  0  0  0  0  0  0  0  0
   -5.3209   -9.1301    0.5356 C   0  0  3  0  0  0  0  0  0  0  0  0
   -5.1392   -8.2211    1.5569 O   0  0  0  0  0  0  0  0  0  0  0  0
   -3.7975   -7.9109    1.6731 C   0  0  3  0  0  0  0  0  0  0  0  0
   -3.4257   -7.7235   -0.1373 C   0  0  3  0  0  0  0  0  0  0  0  0
   -3.9041   -8.7093   -1.0916 C   0  0  3  0  0  0  0  0  0  0  0  0
   -3.4901   -8.4730   -2.4376 O   0  0  0  0  0  0  0  0  0  0  0  0
   -2.4983   -7.1198   -1.0457 O   0  0  0  0  0  0  0  0  0  0  0  0
   -3.3032   -8.8957    2.7276 O   0  0  0  0  0  0  0  0  0  0  0  0
   -3.7897   -8.9607    4.4442 C   0  0  3  0  0  0  0  0  0  0  0  0
   -4.9151   -8.0954    4.4442 C   0  0  3  0  0  0  0  0  0  0  0  0
   -3.9256   -6.8515    4.1301 O   0  0  0  0  0  0  0  0  0  0  0  0
   -2.7910   -5.7727    5.1415 C   0  0  3  0  0  0  0  0  0  0  0  0
   -1.1524   -4.5483    4.6208 O   0  0  0  0  0  0  0  0  0  0  0  0
   -3.2660   -6.4624    6.3586 C   0  0  3  0  0  0  0  0  0  0  0  0
   -3.2072   -8.1521    6.0697 C   0  0  3  0  0  0  0  0  0  0  0  0
   -1.9998   -8.6496    6.7016 O   0  0  0  0  0  0  0  0  0  0  0  0
   -4.4555   -5.8813    5.9882 O   0  0  0  0  0  0  0  0  0  0  0  0
   -5.6772   -8.6556    5.7367 C   0  0  0  0  0  0  0  0  0  0  0  0
   -7.0635   -8.6272    5.8311 O   0  0  0  0  0  0  0  0  0  0  0  0
   -7.8008   -9.3149    4.8843 C   0  0  0  0  0  0  0  0  0  0  0  0
   -7.7144  -10.7780    5.2309 C   0  0  3  0  0  0  0  0  0  0  0  0
   -8.0212  -10.9250    6.6919 C   0  0  0  0  0  0  0  0  0  0  0  0
   -8.6871  -11.5193    4.5215 O   0  0  0  0  0  0  0  0  0  0  0  0
   -4.7237  -10.3933    1.1165 C   0  0  0  0  0  0  0  0  0  0  0  0
   -5.2991  -10.4676    2.4377 O   0  0  0  0  0  0  0  0  0  0  0  0
   -6.6946  -10.2769    2.3247 C   0  0  0  0  0  0  0  0  0  0  0  0
   -7.3298  -11.2996    1.4348 C   0  0  3  0  0  0  0  0  0  0  0  0
   -7.0735  -12.5448    2.2468 C   0  0  0  0  0  0  0  0  0  0  0  0
   -8.6908  -11.0875    1.1549 O   0  0  0  0  0  0  0  0  0  0  0  0
   -8.1255   -8.0030    1.0077 C   0  0  0  0  0  0  0  0  0  0  0  0
   -9.0254   -8.7339    1.8133 O   0  0  0  0  0  0  0  0  0  0  0  0
  -10.2814   -8.1794    1.6425 C   0  0  0  0  0  0  0  0  0  0  0  0
  -11.2945   -9.2025    2.0354 C   0  0  3  0  0  0  0  0  0  0  0  0
  -12.5666   -8.4081    2.0945 C   0  0  0  0  0  0  0  0  0  0  0  0
  -11.3776  -10.2588    1.0938 O   0  0  0  0  0  0  0  0  0  0  0  0
   -7.7523   -6.4706    5.3331 C   0  0  0  0  0  0  0  0  0  0  0  0
   -8.9574   -5.8478    5.1718 O   0  0  0  0  0  0  0  0  0  0  0  0
   -9.9709   -6.8584    5.3278 C   0  0  0  0  0  0  0  0  0  0  0  0
  -11.1531   -6.0325    5.7210 C   0  0  3  0  0  0  0  0  0  0  0  0
  -10.8003   -5.3708    7.0525 C   0  0  0  0  0  0  0  0  0  0  0  0
  -11.3043   -5.0513    4.6935 O   0  0  0  0  0  0  0  0  0  0  0  0
   -1.6517   -7.6016    4.3088 C   0  0  0  0  0  0  0  0  0  0  0  0
   -0.7432   -8.6877    4.4283 O   0  0  0  0  0  0  0  0  0  0  0  0
   -1.1164   -9.9961    3.9183 C   0  0  0  0  0  0  0  0  0  0  0  0
   -0.7992  -11.0906    4.9324 C   0  0  3  0  0  0  0  0  0  0  0  0
    0.4976  -10.7253    5.6029 C   0  0  0  0  0  0  0  0  0  0  0  0
   -1.8371  -11.2560    5.9076 O   0  0  0  0  0  0  0  0  0  0  0  0
   -1.2327   -7.2559    1.0322 C   0  0  0  0  0  0  0  0  0  0  0  0
   -1.3629   -8.4893    0.3880 O   0  0  0  0  0  0  0  0  0  0  0  0
   -0.4157   -8.7925   -0.6000 C   0  0  0  0  0  0  0  0  0  0  0  0
   -0.7499  -10.2083   -0.9961 C   0  0  3  0  0  0  0  0  0  0  0  0
   -0.5137  -10.3478   -2.4817 C   0  0  0  0  0  0  0  0  0  0  0  0
    0.0491  -11.0967   -0.2365 O   0  0  0  0  0  0  0  0  0  0  0  0
   -3.7774   -2.5759    1.7797 C   0  0  0  0  0  0  0  0  0  0  0  0
   -4.8625   -1.8456    2.3035 O   0  0  0  0  0  0  0  0  0  0  0  0
   -4.6778   -0.4742    2.0189 C   0  0  0  0  0  0  0  0  0  0  0  0
   -4.4165   -0.2579    0.5186 C   0  0  3  0  0  0  0  0  0  0  0  0
   -5.6639   -0.5787   -0.2574 C   0  0  0  0  0  0  0  0  0  0  0  0
   -3.9769    1.0499    0.2031 O   0  0  0  0  0  0  0  0  0  0  0  0
    0.0730   -2.5243    5.0730 O   0  0  0  0  0  0  0  0  0  0  0  0
    1.8581   -5.5248    3.0926 O   0  0  0  0  0  0  0  0  0  0  0  0
    6.1095    0.0057    1.7866 O   0  0  0  0  0  0  0  0  0  0  0  0
    4.1977    0.8648    4.3896 H   0  0  0  0  0  0  0  0  0  0  0  0
    3.8834    1.0684    2.6483 H   0  0  0  0  0  0  0  0  0  0  0  0
    5.1799    1.9686    3.4002 H   0  0  0  0  0  0  0  0  0  0  0  0
    6.4987   -0.0487    3.8003 H   0  0  0  0  0  0  0  0  0  0  0  0
    4.6827   -1.6100    4.3806 H   0  0  0  0  0  0  0  0  0  0  0  0
    5.6991   -2.2916    3.0644 H   0  0  0  0  0  0  0  0  0  0  0  0
    3.9171   -3.6944    2.5008 H   0  0  0  0  0  0  0  0  0  0  0  0
    2.6424   -2.7333    1.8068 H   0  0  0  0  0  0  0  0  0  0  0  0
    2.9871   -3.1147    5.0094 H   0  0  0  0  0  0  0  0  0  0  0  0
    1.3675   -5.2394    4.9716 H   0  0  0  0  0  0  0  0  0  0  0  0
    1.7604   -3.9557    2.4263 H   0  0  0  0  0  0  0  0  0  0  0  0
   -0.8725   -2.9149    3.3547 H   0  0  0  0  0  0  0  0  0  0  0  0
    1.1155   -1.5279    2.1005 H   0  0  0  0  0  0  0  0  0  0  0  0
   -2.2548    0.0871    2.6696 H   0  0  0  0  0  0  0  0  0  0  0  0
   -2.4455   -2.2786    3.2673 H   0  0  0  0  0  0  0  0  0  0  0  0
   -0.4594   -2.9180   -0.3196 H   0  0  0  0  0  0  0  0  0  0  0  0
    0.4011   -1.3641    0.4015 H   0  0  0  0  0  0  0  0  0  0  0  0
   -2.1312    0.0373    0.2416 H   0  0  0  0  0  0  0  0  0  0  0  0
    0.0337    0.9120    1.7236 H   0  0  0  0  0  0  0  0  0  0  0  0
   -0.7597   -1.5549   -1.9530 H   0  0  0  0  0  0  0  0  0  0  0  0
   -2.5213   -5.1468   -1.4684 H   0  0  0  0  0  0  0  0  0  0  0  0
   -3.3233   -5.7576    0.7651 H   0  0  0  0  0  0  0  0  0  0  0  0
   -0.7459   -4.3107    2.6132 H   0  0  0  0  0  0  0  0  0  0  0  0
   -0.5081   -4.0835    0.7217 H   0  0  0  0  0  0  0  0  0  0  0  0
   -0.2003   -6.1600   -0.9084 H   0  0  0  0  0  0  0  0  0  0  0  0
   -0.5869   -3.7755   -2.0607 H   0  0  0  0  0  0  0  0  0  0  0  0
    1.6710   -3.8153   -0.0991 H   0  0  0  0  0  0  0  0  0  0  0  0
    0.2983   -6.9818    4.7581 H   0  0  0  0  0  0  0  0  0  0  0  0
   -2.2405   -6.5115    2.8125 H   0  0  0  0  0  0  0  0  0  0  0  0
   -3.4238   -2.6594    4.8476 H   0  0  0  0  0  0  0  0  0  0  0  0
   -1.4923   -2.9205    5.7936 H   0  0  0  0  0  0  0  0  0  0  0  0
   -1.1747   -5.9808    6.9379 H   0  0  0  0  0  0  0  0  0  0  0  0
    0.4764   -3.8540    6.5893 H   0  0  0  0  0  0  0  0  0  0  0  0
   -3.0290   -3.1355    7.7218 H   0  0  0  0  0  0  0  0  0  0  0  0
   -6.1123   -4.9883    7.2247 H   0  0  0  0  0  0  0  0  0  0  0  0
   -5.9274   -6.5809    5.3967 H   0  0  0  0  0  0  0  0  0  0  0  0
   -6.3040   -4.0073    2.5087 H   0  0  0  0  0  0  0  0  0  0  0  0
   -5.8753   -2.7289    4.3476 H   0  0  0  0  0  0  0  0  0  0  0  0
   -8.0380   -3.8972    6.1624 H   0  0  0  0  0  0  0  0  0  0  0  0
   -5.6895   -2.5196    6.8333 H   0  0  0  0  0  0  0  0  0  0  0  0
   -8.6912   -2.8794    4.1184 H   0  0  0  0  0  0  0  0  0  0  0  0
   -9.2794   -6.0998    2.1623 H   0  0  0  0  0  0  0  0  0  0  0  0
   -7.1849   -7.3855    2.7864 H   0  0  0  0  0  0  0  0  0  0  0  0
   -5.0651   -5.5086   -0.0835 H   0  0  0  0  0  0  0  0  0  0  0  0
   -6.5978   -4.0474    0.5988 H   0  0  0  0  0  0  0  0  0  0  0  0
   -8.8056   -5.8770   -0.2062 H   0  0  0  0  0  0  0  0  0  0  0  0
   -9.0779   -3.6094    1.3743 H   0  0  0  0  0  0  0  0  0  0  0  0
   -6.9157   -5.0539   -1.9645 H   0  0  0  0  0  0  0  0  0  0  0  0
   -5.8260   -9.1092   -1.5769 H   0  0  0  0  0  0  0  0  0  0  0  0
   -6.2967   -9.4289    0.4319 H   0  0  0  0  0  0  0  0  0  0  0  0
   -3.7711   -6.9182    2.0943 H   0  0  0  0  0  0  0  0  0  0  0  0
   -4.0572   -6.8910   -0.2717 H   0  0  0  0  0  0  0  0  0  0  0  0
   -3.5117   -9.6866   -0.8350 H   0  0  0  0  0  0  0  0  0  0  0  0
   -2.9740   -7.6357   -2.3951 H   0  0  0  0  0  0  0  0  0  0  0  0
   -1.6656   -7.4221   -0.7440 H   0  0  0  0  0  0  0  0  0  0  0  0
   -3.8077  -10.0277    4.6374 H   0  0  0  0  0  0  0  0  0  0  0  0
   -5.5341   -8.3210    3.5919 H   0  0  0  0  0  0  0  0  0  0  0  0
   -3.6281   -5.5124    4.3346 H   0  0  0  0  0  0  0  0  0  0  0  0
   -3.9501   -6.4035    7.2170 H   0  0  0  0  0  0  0  0  0  0  0  0
   -3.8384   -8.4766    6.8674 H   0  0  0  0  0  0  0  0  0  0  0  0
   -1.2765   -8.7214    6.0497 H   0  0  0  0  0  0  0  0  0  0  0  0
   -4.4882   -5.1019    5.3519 H   0  0  0  0  0  0  0  0  0  0  0  0
   -5.4569   -8.0759    6.6176 H   0  0  0  0  0  0  0  0  0  0  0  0
   -5.4074   -9.7033    5.9274 H   0  0  0  0  0  0  0  0  0  0  0  0
   -7.4941   -8.9411    3.9213 H   0  0  0  0  0  0  0  0  0  0  0  0
   -8.8432   -9.0138    4.8841 H   0  0  0  0  0  0  0  0  0  0  0  0
   -6.6968  -11.1554    5.0446 H   0  0  0  0  0  0  0  0  0  0  0  0
   -9.0299  -10.5377    6.8594 H   0  0  0  0  0  0  0  0  0  0  0  0
   -7.3157  -10.3686    7.3158 H   0  0  0  0  0  0  0  0  0  0  0  0
   -7.9828  -11.9720    6.9748 H   0  0  0  0  0  0  0  0  0  0  0  0
   -9.1310  -10.9449    3.8824 H   0  0  0  0  0  0  0  0  0  0  0  0
   -3.6465  -10.4188    1.2525 H   0  0  0  0  0  0  0  0  0  0  0  0
   -5.0012  -11.2639    0.5457 H   0  0  0  0  0  0  0  0  0  0  0  0
   -6.9460   -9.2494    2.1674 H   0  0  0  0  0  0  0  0  0  0  0  0
   -7.0425  -10.4432    3.2886 H   0  0  0  0  0  0  0  0  0  0  0  0
   -6.8370  -11.3400    0.4640 H   0  0  0  0  0  0  0  0  0  0  0  0
   -7.6515  -12.4924    3.1581 H   0  0  0  0  0  0  0  0  0  0  0  0
   -6.0248  -12.6089    2.5697 H   0  0  0  0  0  0  0  0  0  0  0  0
   -7.3383  -13.4411    1.7141 H   0  0  0  0  0  0  0  0  0  0  0  0
   -9.0770  -10.4534    1.7846 H   0  0  0  0  0  0  0  0  0  0  0  0
   -7.6574   -8.8570    0.6548 H   0  0  0  0  0  0  0  0  0  0  0  0
   -8.4712   -7.6963    0.0305 H   0  0  0  0  0  0  0  0  0  0  0  0
  -10.4245   -7.8275    0.6150 H   0  0  0  0  0  0  0  0  0  0  0  0
  -10.3488   -7.3514    2.3319 H   0  0  0  0  0  0  0  0  0  0  0  0
  -11.0190   -9.6448    2.9994 H   0  0  0  0  0  0  0  0  0  0  0  0
  -12.7617   -7.9640    1.1109 H   0  0  0  0  0  0  0  0  0  0  0  0
  -12.4532   -7.5891    2.8159 H   0  0  0  0  0  0  0  0  0  0  0  0
  -13.4028   -9.0369    2.3755 H   0  0  0  0  0  0  0  0  0  0  0  0
  -11.1432   -9.9395    0.2048 H   0  0  0  0  0  0  0  0  0  0  0  0
   -7.7488   -6.9438    6.3212 H   0  0  0  0  0  0  0  0  0  0  0  0
   -7.7232   -7.1674    4.5084 H   0  0  0  0  0  0  0  0  0  0  0  0
   -9.7433   -7.6053    6.1034 H   0  0  0  0  0  0  0  0  0  0  0  0
  -10.0737   -7.3617    4.3676 H   0  0  0  0  0  0  0  0  0  0  0  0
  -12.0587   -6.6334    5.7820 H   0  0  0  0  0  0  0  0  0  0  0  0
   -9.9185   -4.7254    6.9635 H   0  0  0  0  0  0  0  0  0  0  0  0
  -10.5632   -6.1219    7.8162 H   0  0  0  0  0  0  0  0  0  0  0  0
  -11.6119   -4.7344    7.3929 H   0  0  0  0  0  0  0  0  0  0  0  0
  -10.3811   -4.8164    4.4507 H   0  0  0  0  0  0  0  0  0  0  0  0
   -2.3981   -8.0089    3.8270 H   0  0  0  0  0  0  0  0  0  0  0  0
   -1.7264   -7.3336    5.3178 H   0  0  0  0  0  0  0  0  0  0  0  0
   -0.5457  -10.0910    3.0020 H   0  0  0  0  0  0  0  0  0  0  0  0
   -2.1378  -10.2139    3.6453 H   0  0  0  0  0  0  0  0  0  0  0  0
   -0.7446  -12.0400    4.3920 H   0  0  0  0  0  0  0  0  0  0  0  0
    0.3585   -9.8759    6.2796 H   0  0  0  0  0  0  0  0  0  0  0  0
    1.2278  -10.4407    4.8395 H   0  0  0  0  0  0  0  0  0  0  0  0
    0.8731  -11.5520    6.1979 H   0  0  0  0  0  0  0  0  0  0  0  0
   -1.8784  -10.4815    6.5018 H   0  0  0  0  0  0  0  0  0  0  0  0
   -1.4293   -7.6592    1.9996 H   0  0  0  0  0  0  0  0  0  0  0  0
   -0.1786   -7.0275    1.0527 H   0  0  0  0  0  0  0  0  0  0  0  0
    0.5629   -8.5864   -0.1885 H   0  0  0  0  0  0  0  0  0  0  0  0
   -0.5541   -8.1464   -1.4732 H   0  0  0  0  0  0  0  0  0  0  0  0
   -1.7851  -10.4842   -0.7721 H   0  0  0  0  0  0  0  0  0  0  0  0
    0.4661   -9.9369   -2.7381 H   0  0  0  0  0  0  0  0  0  0  0  0
   -1.2598   -9.7808   -3.0504 H   0  0  0  0  0  0  0  0  0  0  0  0
   -0.5556  -11.3892   -2.7941 H   0  0  0  0  0  0  0  0  0  0  0  0
    0.7973  -10.5951    0.1242 H   0  0  0  0  0  0  0  0  0  0  0  0
   -3.9329   -3.6108    2.1014 H   0  0  0  0  0  0  0  0  0  0  0  0
   -3.8980   -2.7103    0.7072 H   0  0  0  0  0  0  0  0  0  0  0  0
   -3.9092   -0.1180    2.6886 H   0  0  0  0  0  0  0  0  0  0  0  0
   -5.5503    0.0800    2.3486 H   0  0  0  0  0  0  0  0  0  0  0  0
   -3.6489   -0.9374    0.1278 H   0  0  0  0  0  0  0  0  0  0  0  0
   -6.4495    0.1117    0.0492 H   0  0  0  0  0  0  0  0  0  0  0  0
   -5.9896   -1.6070   -0.0739 H   0  0  0  0  0  0  0  0  0  0  0  0
   -5.4824   -0.4492   -1.3258 H   0  0  0  0  0  0  0  0  0  0  0  0
   -4.2376    1.6680    0.8994 H   0  0  0  0  0  0  0  0  0  0  0  0
    0.7601   -1.8629    5.2585 H   0  0  0  0  0  0  0  0  0  0  0  0
    1.2322   -6.2782    2.9435 H   0  0  0  0  0  0  0  0  0  0  0  0
    5.3212   -0.0402    1.2121 H   0  0  0  0  0  0  0  0  0  0  0  0
  1  2  1  0  0  0  0
  1121  1  0  0  0  0
  1122  1  0  0  0  0
  1123  1  0  0  0  0
  2  3  1  0  0  0  0
  2120  1  0  0  0  0
  2124  1  0  0  0  0
  3  4  1  0  0  0  0
  3125  1  0  0  0  0
  3126  1  0  0  0  0
  4  5  1  0  0  0  0
  5  6  1  0  0  0  0
  5127  1  0  0  0  0
  5128  1  0  0  0  0
  6  7  1  0  0  0  0
  6 11  1  0  0  0  0
  6129  1  0  0  0  0
  7  8  1  0  0  0  0
  7 71  1  0  0  0  0
  7130  1  0  0  0  0
  8  9  1  0  0  0  0
  8119  1  0  0  0  0
  8131  1  0  0  0  0
  9 10  1  0  0  0  0
  9118  1  0  0  0  0
  9132  1  0  0  0  0
 10 11  1  0  0  0  0
 10 12  1  0  0  0  0
 10133  1  0  0  0  0
 12 13  1  0  0  0  0
 13 14  1  0  0  0  0
 13 18  1  0  0  0  0
 13134  1  0  0  0  0
 14 15  1  0  0  0  0
 14112  1  0  0  0  0
 14135  1  0  0  0  0
 15 16  1  0  0  0  0
 16 17  1  0  0  0  0
 16 21  1  0  0  0  0
 16136  1  0  0  0  0
 17 18  1  0  0  0  0
 17 20  1  0  0  0  0
 17137  1  0  0  0  0
 18 19  1  0  0  0  0
 18138  1  0  0  0  0
 19139  1  0  0  0  0
 20140  1  0  0  0  0
 21 22  1  0  0  0  0
 22 23  1  0  0  0  0
 22 27  1  0  0  0  0
 22141  1  0  0  0  0
 23 24  1  0  0  0  0
 23106  1  0  0  0  0
 23142  1  0  0  0  0
 24 25  1  0  0  0  0
 25 26  1  0  0  0  0
 25 30  1  0  0  0  0
 25143  1  0  0  0  0
 26 27  1  0  0  0  0
 26 29  1  0  0  0  0
 26144  1  0  0  0  0
 27 28  1  0  0  0  0
 27145  1  0  0  0  0
 28146  1  0  0  0  0
 29147  1  0  0  0  0
 30 31  1  0  0  0  0
 31 32  1  0  0  0  0
 31 36  1  0  0  0  0
 31148  1  0  0  0  0
 32 33  1  0  0  0  0
 32100  1  0  0  0  0
 32149  1  0  0  0  0
 33 34  1  0  0  0  0
 34 35  1  0  0  0  0
 34 39  1  0  0  0  0
 34150  1  0  0  0  0
 35 36  1  0  0  0  0
 35 38  1  0  0  0  0
 35151  1  0  0  0  0
 36 37  1  0  0  0  0
 36152  1  0  0  0  0
 37153  1  0  0  0  0
 38154  1  0  0  0  0
 39 40  1  0  0  0  0
 40 41  1  0  0  0  0
 40 45  1  0  0  0  0
 40155  1  0  0  0  0
 41 42  1  0  0  0  0
 41 94  1  0  0  0  0
 41156  1  0  0  0  0
 42 43  1  0  0  0  0
 43 44  1  0  0  0  0
 43 48  1  0  0  0  0
 43157  1  0  0  0  0
 44 45  1  0  0  0  0
 44 47  1  0  0  0  0
 44158  1  0  0  0  0
 45 46  1  0  0  0  0
 45159  1  0  0  0  0
 46160  1  0  0  0  0
 47161  1  0  0  0  0
 48 49  1  0  0  0  0
 49 50  1  0  0  0  0
 49 54  1  0  0  0  0
 49162  1  0  0  0  0
 50 51  1  0  0  0  0
 50 88  1  0  0  0  0
 50163  1  0  0  0  0
 51 52  1  0  0  0  0
 52 53  1  0  0  0  0
 52 57  1  0  0  0  0
 52164  1  0  0  0  0
 53 54  1  0  0  0  0
 53 56  1  0  0  0  0
 53165  1  0  0  0  0
 54 55  1  0  0  0  0
 54166  1  0  0  0  0
 55167  1  0  0  0  0
 56168  1  0  0  0  0
 57 58  1  0  0  0  0
 58 59  1  0  0  0  0
 58 63  1  0  0  0  0
 58169  1  0  0  0  0
 59 60  1  0  0  0  0
 59 82  1  0  0  0  0
 59170  1  0  0  0  0
 60 61  1  0  0  0  0
 61 62  1  0  0  0  0
 61 66  1  0  0  0  0
 61171  1  0  0  0  0
 62 63  1  0  0  0  0
 62 65  1  0  0  0  0
 62172  1  0  0  0  0
 63 64  1  0  0  0  0
 63173  1  0  0  0  0
 64174  1  0  0  0  0
 65175  1  0  0  0  0
 66 67  1  0  0  0  0
 67 68  1  0  0  0  0
 67 73  1  0  0  0  0
 67176  1  0  0  0  0
 68 69  1  0  0  0  0
 68 76  1  0  0  0  0
 68177  1  0  0  0  0
 69 70  1  0  0  0  0
 70 71  1  0  0  0  0
 70 72  1  0  0  0  0
 70178  1  0  0  0  0
 72 73  1  0  0  0  0
 72 75  1  0  0  0  0
 72179  1  0  0  0  0
 73 74  1  0  0  0  0
 73180  1  0  0  0  0
 74181  1  0  0  0  0
 75182  1  0  0  0  0
 76 77  1  0  0  0  0
 76183  1  0  0  0  0
 76184  1  0  0  0  0
 77 78  1  0  0  0  0
 78 79  1  0  0  0  0
 78185  1  0  0  0  0
 78186  1  0  0  0  0
 79 80  1  0  0  0  0
 79 81  1  0  0  0  0
 79187  1  0  0  0  0
 80188  1  0  0  0  0
 80189  1  0  0  0  0
 80190  1  0  0  0  0
 81191  1  0  0  0  0
 82 83  1  0  0  0  0
 82192  1  0  0  0  0
 82193  1  0  0  0  0
 83 84  1  0  0  0  0
 84 85  1  0  0  0  0
 84194  1  0  0  0  0
 84195  1  0  0  0  0
 85 86  1  0  0  0  0
 85 87  1  0  0  0  0
 85196  1  0  0  0  0
 86197  1  0  0  0  0
 86198  1  0  0  0  0
 86199  1  0  0  0  0
 87200  1  0  0  0  0
 88 89  1  0  0  0  0
 88201  1  0  0  0  0
 88202  1  0  0  0  0
 89 90  1  0  0  0  0
 90 91  1  0  0  0  0
 90203  1  0  0  0  0
 90204  1  0  0  0  0
 91 92  1  0  0  0  0
 91 93  1  0  0  0  0
 91205  1  0  0  0  0
 92206  1  0  0  0  0
 92207  1  0  0  0  0
 92208  1  0  0  0  0
 93209  1  0  0  0  0
 94 95  1  0  0  0  0
 94210  1  0  0  0  0
 94211  1  0  0  0  0
 95 96  1  0  0  0  0
 96 97  1  0  0  0  0
 96212  1  0  0  0  0
 96213  1  0  0  0  0
 97 98  1  0  0  0  0
 97 99  1  0  0  0  0
 97214  1  0  0  0  0
 98215  1  0  0  0  0
 98216  1  0  0  0  0
 98217  1  0  0  0  0
 99218  1  0  0  0  0
100101  1  0  0  0  0
100219  1  0  0  0  0
100220  1  0  0  0  0
101102  1  0  0  0  0
102103  1  0  0  0  0
102221  1  0  0  0  0
102222  1  0  0  0  0
103104  1  0  0  0  0
103105  1  0  0  0  0
103223  1  0  0  0  0
104224  1  0  0  0  0
104225  1  0  0  0  0
104226  1  0  0  0  0
105227  1  0  0  0  0
106107  1  0  0  0  0
106228  1  0  0  0  0
106229  1  0  0  0  0
107108  1  0  0  0  0
108109  1  0  0  0  0
108230  1  0  0  0  0
108231  1  0  0  0  0
109110  1  0  0  0  0
109111  1  0  0  0  0
109232  1  0  0  0  0
110233  1  0  0  0  0
110234  1  0  0  0  0
110235  1  0  0  0  0
111236  1  0  0  0  0
112113  1  0  0  0  0
112237  1  0  0  0  0
112238  1  0  0  0  0
113114  1  0  0  0  0
114115  1  0  0  0  0
114239  1  0  0  0  0
114240  1  0  0  0  0
115116  1  0  0  0  0
115117  1  0  0  0  0
115241  1  0  0  0  0
116242  1  0  0  0  0
116243  1  0  0  0  0
116244  1  0  0  0  0
117245  1  0  0  0  0
118246  1  0  0  0  0
119247  1  0  0  0  0
120248  1  0  0  0  0
M  END
