
 OpenBabel10072619513D

 55 56  0  0  0  0  0  0  0  0999 V2000
    6.1919    8.6947   -4.1200 C   0  0  0  0  0  0  0  0  0  0  0  0
    5.7794    7.2517   -3.9087 C   0  0  0  0  0  0  0  0  0  0  0  0
    5.4931    6.4272   -4.8732 N   0  0  0  0  0  0  0  0  0  0  0  0
    5.6033    6.9580   -6.1643 N   0  0  0  0  0  0  0  0  0  0  0  0
    4.9951    6.2286   -7.0461 C   0  0  0  0  0  0  0  0  0  0  0  0
    4.2821    5.1073   -6.7661 N   0  0  0  0  0  0  0  0  0  0  0  0
    4.9835    6.5255   -8.3640 N   0  0  0  0  0  0  0  0  0  0  0  0
    5.6860    6.7545   -2.4897 C   0  0  0  0  0  0  0  0  0  0  0  0
    5.7577    7.6026   -1.3804 C   0  0  0  0  0  0  0  0  0  0  0  0
    5.6271    7.0895   -0.0757 C   0  0  0  0  0  0  0  0  0  0  0  0
    5.4242    5.7265    0.1614 C   0  0  0  0  0  0  0  0  0  0  0  0
    5.3933    4.8825   -0.9642 C   0  0  0  0  0  0  0  0  0  0  0  0
    5.5014    5.3868   -2.2683 C   0  0  0  0  0  0  0  0  0  0  0  0
    5.2812    5.1376    1.4432 N   0  0  0  0  0  0  0  0  0  0  0  0
    4.7735    5.6960    2.5901 C   0  0  0  0  0  0  0  0  0  0  0  0
    3.9950    5.1358    3.4667 N   0  0  0  0  0  0  0  0  0  0  0  0
    3.5370    3.8187    3.3160 C   0  0  0  0  0  0  0  0  0  0  0  0
    3.8942    2.8768    4.2835 C   0  0  0  0  0  0  0  0  0  0  0  0
    3.4097    1.5627    4.2352 C   0  0  0  0  0  0  0  0  0  0  0  0
    2.5699    1.1625    3.1885 C   0  0  0  0  0  0  0  0  0  0  0  0
    2.2020    2.1111    2.2191 C   0  0  0  0  0  0  0  0  0  0  0  0
    2.6654    3.4325    2.2953 C   0  0  0  0  0  0  0  0  0  0  0  0
    1.9957   -0.2255    3.1179 C   0  0  0  0  0  0  0  0  0  0  0  0
    1.0209   -0.4455    2.2760 N   0  0  0  0  0  0  0  0  0  0  0  0
    0.4631   -1.7238    2.3579 N   0  0  0  0  0  0  0  0  0  0  0  0
   -0.1999   -2.0417    1.2916 C   0  0  0  0  0  0  0  0  0  0  0  0
   -0.2869   -1.2947    0.1628 N   0  0  0  0  0  0  0  0  0  0  0  0
   -0.8801   -3.2073    1.1878 N   0  0  0  0  0  0  0  0  0  0  0  0
    2.5382   -1.2871    4.0593 C   0  0  0  0  0  0  0  0  0  0  0  0
    5.2009    6.9476    2.9058 N   0  0  0  0  0  0  0  0  0  0  0  0
    6.3775    8.9381   -5.1671 H   0  0  0  0  0  0  0  0  0  0  0  0
    7.1184    8.8910   -3.5750 H   0  0  0  0  0  0  0  0  0  0  0  0
    5.4036    9.3586   -3.7550 H   0  0  0  0  0  0  0  0  0  0  0  0
    4.4212    4.9131   -5.7766 H   0  0  0  0  0  0  0  0  0  0  0  0
    4.5233    4.3050   -7.3280 H   0  0  0  0  0  0  0  0  0  0  0  0
    5.6595    7.2362   -8.6190 H   0  0  0  0  0  0  0  0  0  0  0  0
    4.9333    5.7501   -9.0039 H   0  0  0  0  0  0  0  0  0  0  0  0
    5.8952    8.6754   -1.4951 H   0  0  0  0  0  0  0  0  0  0  0  0
    5.6851    7.8032    0.7385 H   0  0  0  0  0  0  0  0  0  0  0  0
    5.2509    3.8103   -0.8482 H   0  0  0  0  0  0  0  0  0  0  0  0
    5.4386    4.6970   -3.1076 H   0  0  0  0  0  0  0  0  0  0  0  0
    5.0176    4.1634    1.3508 H   0  0  0  0  0  0  0  0  0  0  0  0
    4.5438    3.1800    5.1013 H   0  0  0  0  0  0  0  0  0  0  0  0
    3.6868    0.8875    5.0398 H   0  0  0  0  0  0  0  0  0  0  0  0
    1.5323    1.8344    1.4064 H   0  0  0  0  0  0  0  0  0  0  0  0
    2.3338    4.1636    1.5609 H   0  0  0  0  0  0  0  0  0  0  0  0
    0.0892   -0.3701    0.3576 H   0  0  0  0  0  0  0  0  0  0  0  0
   -1.1870   -1.2708   -0.2878 H   0  0  0  0  0  0  0  0  0  0  0  0
   -0.9399   -3.6817    2.0817 H   0  0  0  0  0  0  0  0  0  0  0  0
   -1.7768   -3.1369    0.7312 H   0  0  0  0  0  0  0  0  0  0  0  0
    3.6103   -1.1556    4.2329 H   0  0  0  0  0  0  0  0  0  0  0  0
    2.4209   -2.2940    3.6487 H   0  0  0  0  0  0  0  0  0  0  0  0
    2.0018   -1.2270    5.0114 H   0  0  0  0  0  0  0  0  0  0  0  0
    6.2029    7.0487    2.8092 H   0  0  0  0  0  0  0  0  0  0  0  0
    4.8983    7.1744    3.8499 H   0  0  0  0  0  0  0  0  0  0  0  0
  1  2  1  0  0  0  0
  1 31  1  0  0  0  0
  1 32  1  0  0  0  0
  1 33  1  0  0  0  0
  2  3  2  0  0  0  0
  2  8  1  0  0  0  0
  3  4  1  0  0  0  0
  4  5  2  0  0  0  0
  5  6  1  0  0  0  0
  5  7  1  0  0  0  0
  6 34  1  0  0  0  0
  6 35  1  0  0  0  0
  7 36  1  0  0  0  0
  7 37  1  0  0  0  0
  8  9  2  0  0  0  0
  8 13  1  0  0  0  0
  9 10  1  0  0  0  0
  9 38  1  0  0  0  0
 10 11  2  0  0  0  0
 10 39  1  0  0  0  0
 11 12  1  0  0  0  0
 11 14  1  0  0  0  0
 12 13  2  0  0  0  0
 12 40  1  0  0  0  0
 13 41  1  0  0  0  0
 14 15  1  0  0  0  0
 14 42  1  0  0  0  0
 15 16  2  3  0  0  0
 15 30  1  0  0  0  0
 16 17  1  0  0  0  0
 17 18  2  0  0  0  0
 17 22  1  0  0  0  0
 18 19  1  0  0  0  0
 18 43  1  0  0  0  0
 19 20  2  0  0  0  0
 19 44  1  0  0  0  0
 20 21  1  0  0  0  0
 20 23  1  0  0  0  0
 21 22  2  0  0  0  0
 21 45  1  0  0  0  0
 22 46  1  0  0  0  0
 23 24  2  0  0  0  0
 23 29  1  0  0  0  0
 24 25  1  0  0  0  0
 25 26  2  0  0  0  0
 26 27  1  0  0  0  0
 26 28  1  0  0  0  0
 27 47  1  0  0  0  0
 27 48  1  0  0  0  0
 28 49  1  0  0  0  0
 28 50  1  0  0  0  0
 29 51  1  0  0  0  0
 29 52  1  0  0  0  0
 29 53  1  0  0  0  0
 30 54  1  0  0  0  0
 30 55  1  0  0  0  0
M  END
