
 OpenBabel10072619423D

 50 53  0  0  1  0  0  0  0  0999 V2000
    2.6700    0.1077   -0.2424 C   0  0  0  0  0  0  0  0  0  0  0  0
    1.1805    0.2500   -0.1451 C   0  0  0  0  0  0  0  0  0  0  0  0
    0.5662    1.4922   -0.3291 C   0  0  0  0  0  0  0  0  0  0  0  0
   -0.8233    1.6156   -0.2549 C   0  0  0  0  0  0  0  0  0  0  0  0
   -1.6268    0.4924   -0.0002 C   0  0  0  0  0  0  0  0  0  0  0  0
   -1.0025   -0.7548    0.1754 C   0  0  0  0  0  0  0  0  0  0  0  0
    0.3851   -0.8741    0.0920 C   0  0  0  0  0  0  0  0  0  0  0  0
   -3.1484    0.5975    0.0848 C   0  0  3  0  0  0  0  0  0  0  0  0
   -3.7569    1.1126   -1.2147 C   0  0  0  0  0  0  0  0  0  0  0  0
   -3.6102    0.6580   -2.4734 C   0  0  0  0  0  0  0  0  0  0  0  0
   -4.1894    1.2874   -3.6816 C   0  0  0  0  0  0  0  0  0  0  0  0
   -3.7912    2.5698   -4.0877 C   0  0  0  0  0  0  0  0  0  0  0  0
   -4.3328    3.1636   -5.2354 C   0  0  0  0  0  0  0  0  0  0  0  0
   -5.2594    2.4660   -6.0100 C   0  0  0  0  0  0  0  0  0  0  0  0
   -5.6150    1.1685   -5.6435 C   0  0  0  0  0  0  0  0  0  0  0  0
   -5.0922    0.5823   -4.4860 C   0  0  0  0  0  0  0  0  0  0  0  0
   -5.8557    2.9288   -7.1497 O   0  0  0  0  0  0  0  0  0  0  0  0
   -5.8592    4.3402   -7.3259 C   0  0  0  0  0  0  0  0  0  0  0  0
   -2.8781   -0.4650   -2.8016 O   0  0  0  0  0  0  0  0  0  0  0  0
   -4.5987    2.2756   -0.8347 C   0  0  0  0  0  0  0  0  0  0  0  0
   -5.3389    2.9350   -1.5304 O   0  0  0  0  0  0  0  0  0  0  0  0
   -4.4299    2.5097    0.6575 C   0  0  0  0  0  0  0  0  0  0  0  0
   -4.9789    3.4267    1.2264 O   0  0  0  0  0  0  0  0  0  0  0  0
   -3.5996    1.5146    1.1279 N   0  0  0  0  0  0  0  0  0  0  0  0
   -3.2791    1.2929    2.4900 C   0  0  0  0  0  0  0  0  0  0  0  0
   -3.5976    2.2104    3.4905 C   0  0  0  0  0  0  0  0  0  0  0  0
   -3.2446    1.9478    4.8164 C   0  0  0  0  0  0  0  0  0  0  0  0
   -2.5666    0.7804    5.1206 C   0  0  0  0  0  0  0  0  0  0  0  0
   -2.2798   -0.0814    4.0813 C   0  0  0  0  0  0  0  0  0  0  0  0
   -2.6368    0.1408    2.7935 N   0  0  0  0  0  0  0  0  0  0  0  0
    3.1707    1.0605   -0.0434 H   0  0  0  0  0  0  0  0  0  0  0  0
    2.9474   -0.2354   -1.2439 H   0  0  0  0  0  0  0  0  0  0  0  0
    3.0367   -0.6130    0.4962 H   0  0  0  0  0  0  0  0  0  0  0  0
    1.1707    2.3775   -0.5136 H   0  0  0  0  0  0  0  0  0  0  0  0
   -1.2652    2.6011   -0.3847 H   0  0  0  0  0  0  0  0  0  0  0  0
   -1.5903   -1.6428    0.4038 H   0  0  0  0  0  0  0  0  0  0  0  0
    0.8460   -1.8482    0.2381 H   0  0  0  0  0  0  0  0  0  0  0  0
   -3.5931   -0.3830    0.3023 H   0  0  0  0  0  0  0  0  0  0  0  0
   -3.0649    3.1306   -3.5033 H   0  0  0  0  0  0  0  0  0  0  0  0
   -4.0103    4.1645   -5.4982 H   0  0  0  0  0  0  0  0  0  0  0  0
   -6.3210    0.6169   -6.2601 H   0  0  0  0  0  0  0  0  0  0  0  0
   -5.3948   -0.4270   -4.2213 H   0  0  0  0  0  0  0  0  0  0  0  0
   -6.5195    4.5645   -8.1689 H   0  0  0  0  0  0  0  0  0  0  0  0
   -4.8587    4.7045   -7.5792 H   0  0  0  0  0  0  0  0  0  0  0  0
   -6.2570    4.8566   -6.4446 H   0  0  0  0  0  0  0  0  0  0  0  0
   -2.1659   -0.6143   -2.1478 H   0  0  0  0  0  0  0  0  0  0  0  0
   -4.0963    3.1497    3.2835 H   0  0  0  0  0  0  0  0  0  0  0  0
   -3.4926    2.6622    5.5975 H   0  0  0  0  0  0  0  0  0  0  0  0
   -2.2670    0.5523    6.1376 H   0  0  0  0  0  0  0  0  0  0  0  0
   -1.7279   -1.0008    4.2564 H   0  0  0  0  0  0  0  0  0  0  0  0
  1  2  1  0  0  0  0
  1 31  1  0  0  0  0
  1 32  1  0  0  0  0
  1 33  1  0  0  0  0
  2  3  2  0  0  0  0
  2  7  1  0  0  0  0
  3  4  1  0  0  0  0
  3 34  1  0  0  0  0
  4  5  2  0  0  0  0
  4 35  1  0  0  0  0
  5  6  1  0  0  0  0
  5  8  1  0  0  0  0
  6  7  2  0  0  0  0
  6 36  1  0  0  0  0
  7 37  1  0  0  0  0
  8  9  1  0  0  0  0
  8 24  1  0  0  0  0
  8 38  1  0  0  0  0
  9 10  2  0  0  0  0
  9 20  1  0  0  0  0
 10 11  1  0  0  0  0
 10 19  1  0  0  0  0
 11 12  2  0  0  0  0
 11 16  1  0  0  0  0
 12 13  1  0  0  0  0
 12 39  1  0  0  0  0
 13 14  2  0  0  0  0
 13 40  1  0  0  0  0
 14 15  1  0  0  0  0
 14 17  1  0  0  0  0
 15 16  2  0  0  0  0
 15 41  1  0  0  0  0
 16 42  1  0  0  0  0
 17 18  1  0  0  0  0
 18 43  1  0  0  0  0
 18 44  1  0  0  0  0
 18 45  1  0  0  0  0
 19 46  1  0  0  0  0
 20 21  2  0  0  0  0
 20 22  1  0  0  0  0
 22 23  2  0  0  0  0
 22 24  1  0  0  0  0
 24 25  1  0  0  0  0
 25 26  2  0  0  0  0
 25 30  1  0  0  0  0
 26 27  1  0  0  0  0
 26 47  1  0  0  0  0
 27 28  2  0  0  0  0
 27 48  1  0  0  0  0
 28 29  1  0  0  0  0
 28 49  1  0  0  0  0
 29 30  2  0  0  0  0
 29 50  1  0  0  0  0
M  END
