
 OpenBabel10072616423D

 77 80  0  0  1  0  0  0  0  0999 V2000
    1.7836   -2.4142   -0.9037 C   0  0  0  0  0  0  0  0  0  0  0  0
    3.2142   -1.9544   -0.6941 C   0  0  0  0  0  0  0  0  0  0  0  0
    3.6533   -2.1651    0.7529 C   0  0  0  0  0  0  0  0  0  0  0  0
    4.9885   -1.6865    0.8907 O   0  0  0  0  0  0  0  0  0  0  0  0
    5.4450   -1.4762    2.1638 C   0  0  0  0  0  0  0  0  0  0  0  0
    4.8707   -1.9481    3.3430 C   0  0  0  0  0  0  0  0  0  0  0  0
    5.4696   -1.6737    4.5852 C   0  0  0  0  0  0  0  0  0  0  0  0
    6.6384   -0.8918    4.6725 C   0  0  0  0  0  0  0  0  0  0  0  0
    7.2049   -0.4160    3.4793 C   0  0  0  0  0  0  0  0  0  0  0  0
    6.6165   -0.7210    2.2439 C   0  0  0  0  0  0  0  0  0  0  0  0
    7.3374   -0.6242    6.0032 C   0  0  3  0  0  0  0  0  0  0  0  0
    7.8203   -1.9202    6.6217 C   0  0  0  0  0  0  0  0  0  0  0  0
    8.7961   -2.6926    6.1268 C   0  0  0  0  0  0  0  0  0  0  0  0
    9.2679   -3.9732    6.6753 C   0  0  0  0  0  0  0  0  0  0  0  0
    8.4295   -5.0944    6.6913 C   0  0  0  0  0  0  0  0  0  0  0  0
    8.9134   -6.3363    7.1082 C   0  0  0  0  0  0  0  0  0  0  0  0
   10.2506   -6.4585    7.4965 C   0  0  0  0  0  0  0  0  0  0  0  0
   11.0925   -5.3434    7.5306 C   0  0  0  0  0  0  0  0  0  0  0  0
   10.5994   -4.1055    7.1037 C   0  0  0  0  0  0  0  0  0  0  0  0
   10.8877   -8.0659    7.9254 S   0  0  0  0  0  0  0  0  0  0  0  0
   12.0304   -7.8711    8.7928 O   0  0  0  0  0  0  0  0  0  0  0  0
    9.7689   -8.8891    8.3310 O   0  0  0  0  0  0  0  0  0  0  0  0
   11.4504   -8.6366    6.4178 N   0  0  0  0  0  0  0  0  0  0  0  0
   10.4233   -8.9392    5.4039 C   0  0  0  0  0  0  0  0  0  0  0  0
   12.6351   -7.9603    5.8600 C   0  0  0  0  0  0  0  0  0  0  0  0
    9.4370   -2.3201    4.9539 O   0  0  0  0  0  0  0  0  0  0  0  0
    6.9778   -2.1609    7.8224 C   0  0  0  0  0  0  0  0  0  0  0  0
    6.8553   -3.1839    8.4574 O   0  0  0  0  0  0  0  0  0  0  0  0
    6.1781   -0.8709    8.0587 C   0  0  0  0  0  0  0  0  0  0  0  0
    5.4850   -0.6610    9.0308 O   0  0  0  0  0  0  0  0  0  0  0  0
    6.4564   -0.0278    6.9998 N   0  0  0  0  0  0  0  0  0  0  0  0
    6.0687    1.3806    6.9833 C   0  0  0  0  0  0  0  0  0  0  0  0
    4.8494    1.7078    6.1097 C   0  0  0  0  0  0  0  0  0  0  0  0
    5.2596    2.4171    4.7998 C   0  0  0  0  0  0  0  0  0  0  0  0
    4.0806    2.8433    4.0325 N   0  0  0  0  0  0  0  0  0  0  0  0
    4.3089    2.8649    2.5652 C   0  0  0  0  0  0  0  0  0  0  0  0
    5.0979    4.0776    2.0338 C   0  0  0  0  0  0  0  0  0  0  0  0
    4.4831    5.3102    2.4271 O   0  0  0  0  0  0  0  0  0  0  0  0
    4.4239    5.3716    3.8560 C   0  0  0  0  0  0  0  0  0  0  0  0
    3.6165    4.1906    4.4446 C   0  0  0  0  0  0  0  0  0  0  0  0
    1.4993   -2.3331   -1.9557 H   0  0  0  0  0  0  0  0  0  0  0  0
    1.0856   -1.8032   -0.3249 H   0  0  0  0  0  0  0  0  0  0  0  0
    1.6532   -3.4566   -0.5987 H   0  0  0  0  0  0  0  0  0  0  0  0
    3.3112   -0.8950   -0.9650 H   0  0  0  0  0  0  0  0  0  0  0  0
    3.8805   -2.4990   -1.3731 H   0  0  0  0  0  0  0  0  0  0  0  0
    3.6266   -3.2316    1.0039 H   0  0  0  0  0  0  0  0  0  0  0  0
    2.9856   -1.6017    1.4115 H   0  0  0  0  0  0  0  0  0  0  0  0
    3.9578   -2.5343    3.3331 H   0  0  0  0  0  0  0  0  0  0  0  0
    5.0081   -2.0914    5.4810 H   0  0  0  0  0  0  0  0  0  0  0  0
    8.1049    0.1996    3.5033 H   0  0  0  0  0  0  0  0  0  0  0  0
    7.0828   -0.3589    1.3307 H   0  0  0  0  0  0  0  0  0  0  0  0
    8.1898    0.0613    5.8884 H   0  0  0  0  0  0  0  0  0  0  0  0
    7.3892   -5.0093    6.3854 H   0  0  0  0  0  0  0  0  0  0  0  0
    8.2480   -7.1979    7.1149 H   0  0  0  0  0  0  0  0  0  0  0  0
   12.1255   -5.4348    7.8645 H   0  0  0  0  0  0  0  0  0  0  0  0
   11.2649   -3.2441    7.1038 H   0  0  0  0  0  0  0  0  0  0  0  0
    9.6046   -9.5257    5.8306 H   0  0  0  0  0  0  0  0  0  0  0  0
   10.8625   -9.5390    4.6000 H   0  0  0  0  0  0  0  0  0  0  0  0
   10.0245   -8.0202    4.9652 H   0  0  0  0  0  0  0  0  0  0  0  0
   13.4045   -7.8158    6.6238 H   0  0  0  0  0  0  0  0  0  0  0  0
   12.3654   -6.9932    5.4259 H   0  0  0  0  0  0  0  0  0  0  0  0
   13.0781   -8.5795    5.0731 H   0  0  0  0  0  0  0  0  0  0  0  0
    9.3812   -3.0911    4.3436 H   0  0  0  0  0  0  0  0  0  0  0  0
    6.9478    1.9800    6.7110 H   0  0  0  0  0  0  0  0  0  0  0  0
    5.8128    1.6605    8.0142 H   0  0  0  0  0  0  0  0  0  0  0  0
    4.2138    2.3879    6.6936 H   0  0  0  0  0  0  0  0  0  0  0  0
    4.2411    0.8148    5.9035 H   0  0  0  0  0  0  0  0  0  0  0  0
    5.8595    1.7302    4.1991 H   0  0  0  0  0  0  0  0  0  0  0  0
    5.9069    3.2731    5.0276 H   0  0  0  0  0  0  0  0  0  0  0  0
    3.3128    2.8872    2.1006 H   0  0  0  0  0  0  0  0  0  0  0  0
    4.7979    1.9458    2.2164 H   0  0  0  0  0  0  0  0  0  0  0  0
    5.1083    4.0570    0.9389 H   0  0  0  0  0  0  0  0  0  0  0  0
    6.1408    4.0565    2.3769 H   0  0  0  0  0  0  0  0  0  0  0  0
    3.9345    6.3108    4.1369 H   0  0  0  0  0  0  0  0  0  0  0  0
    5.4511    5.4020    4.2415 H   0  0  0  0  0  0  0  0  0  0  0  0
    2.5758    4.2824    4.1094 H   0  0  0  0  0  0  0  0  0  0  0  0
    3.5954    4.2779    5.5365 H   0  0  0  0  0  0  0  0  0  0  0  0
  1  2  1  0  0  0  0
  1 41  1  0  0  0  0
  1 42  1  0  0  0  0
  1 43  1  0  0  0  0
  2  3  1  0  0  0  0
  2 44  1  0  0  0  0
  2 45  1  0  0  0  0
  3  4  1  0  0  0  0
  3 46  1  0  0  0  0
  3 47  1  0  0  0  0
  4  5  1  0  0  0  0
  5  6  2  0  0  0  0
  5 10  1  0  0  0  0
  6  7  1  0  0  0  0
  6 48  1  0  0  0  0
  7  8  2  0  0  0  0
  7 49  1  0  0  0  0
  8  9  1  0  0  0  0
  8 11  1  0  0  0  0
  9 10  2  0  0  0  0
  9 50  1  0  0  0  0
 10 51  1  0  0  0  0
 11 12  1  0  0  0  0
 11 31  1  0  0  0  0
 11 52  1  0  0  0  0
 12 13  2  0  0  0  0
 12 27  1  0  0  0  0
 13 14  1  0  0  0  0
 13 26  1  0  0  0  0
 14 15  2  0  0  0  0
 14 19  1  0  0  0  0
 15 16  1  0  0  0  0
 15 53  1  0  0  0  0
 16 17  2  0  0  0  0
 16 54  1  0  0  0  0
 17 18  1  0  0  0  0
 17 20  1  0  0  0  0
 18 19  2  0  0  0  0
 18 55  1  0  0  0  0
 19 56  1  0  0  0  0
 20 21  2  0  0  0  0
 20 22  2  0  0  0  0
 20 23  1  0  0  0  0
 23 24  1  0  0  0  0
 23 25  1  0  0  0  0
 24 57  1  0  0  0  0
 24 58  1  0  0  0  0
 24 59  1  0  0  0  0
 25 60  1  0  0  0  0
 25 61  1  0  0  0  0
 25 62  1  0  0  0  0
 26 63  1  0  0  0  0
 27 28  2  0  0  0  0
 27 29  1  0  0  0  0
 29 30  2  0  0  0  0
 29 31  1  0  0  0  0
 31 32  1  0  0  0  0
 32 33  1  0  0  0  0
 32 64  1  0  0  0  0
 32 65  1  0  0  0  0
 33 34  1  0  0  0  0
 33 66  1  0  0  0  0
 33 67  1  0  0  0  0
 34 35  1  0  0  0  0
 34 68  1  0  0  0  0
 34 69  1  0  0  0  0
 35 36  1  0  0  0  0
 35 40  1  0  0  0  0
 36 37  1  0  0  0  0
 36 70  1  0  0  0  0
 36 71  1  0  0  0  0
 37 38  1  0  0  0  0
 37 72  1  0  0  0  0
 37 73  1  0  0  0  0
 38 39  1  0  0  0  0
 39 40  1  0  0  0  0
 39 74  1  0  0  0  0
 39 75  1  0  0  0  0
 40 76  1  0  0  0  0
 40 77  1  0  0  0  0
M  END
