
 OpenBabel10072620073D

 40 42  0  0  0  0  0  0  0  0999 V2000
    1.0484    1.6596    1.2009 C   0  0  0  0  0  0  0  0  0  0  0  0
    2.3624    1.8248    1.0441 C   0  0  0  0  0  0  0  0  0  0  0  0
    3.0284    1.2946   -0.0271 O   0  0  0  0  0  0  0  0  0  0  0  0
    4.4950    1.2147    0.0032 C   0  0  0  0  0  0  0  0  0  0  0  0
    4.8875    0.5251    1.3500 C   0  0  0  0  0  0  0  0  0  0  0  0
    4.5060   -0.8139    1.5893 C   0  0  0  0  0  0  0  0  0  0  0  0
    4.8088   -1.4536    2.7943 C   0  0  0  0  0  0  0  0  0  0  0  0
    5.4822   -0.7654    3.7981 C   0  0  0  0  0  0  0  0  0  0  0  0
    5.8432    0.5637    3.6017 C   0  0  0  0  0  0  0  0  0  0  0  0
    5.5386    1.2049    2.3975 C   0  0  0  0  0  0  0  0  0  0  0  0
    4.8731    0.3397   -1.2404 C   0  0  0  0  0  0  0  0  0  0  0  0
    4.0991    0.4043   -2.4175 C   0  0  0  0  0  0  0  0  0  0  0  0
    4.4565   -0.3164   -3.5597 C   0  0  0  0  0  0  0  0  0  0  0  0
    5.5984   -1.1121   -3.5551 C   0  0  0  0  0  0  0  0  0  0  0  0
    6.3853   -1.1860   -2.4093 C   0  0  0  0  0  0  0  0  0  0  0  0
    6.0350   -0.4594   -1.2678 C   0  0  0  0  0  0  0  0  0  0  0  0
    5.1390    2.6147   -0.2510 C   0  0  0  0  0  0  0  0  0  0  0  0
    4.3690    3.7355   -0.6154 C   0  0  0  0  0  0  0  0  0  0  0  0
    4.9670    4.9722   -0.8743 C   0  0  0  0  0  0  0  0  0  0  0  0
    6.3505    5.1097   -0.8073 C   0  0  0  0  0  0  0  0  0  0  0  0
    7.1399    4.0113   -0.4842 C   0  0  0  0  0  0  0  0  0  0  0  0
    6.5419    2.7782   -0.2146 C   0  0  0  0  0  0  0  0  0  0  0  0
    0.5342    2.0851    2.0549 H   0  0  0  0  0  0  0  0  0  0  0  0
    0.4658    1.0884    0.4860 H   0  0  0  0  0  0  0  0  0  0  0  0
    2.9631    2.3986    1.7367 H   0  0  0  0  0  0  0  0  0  0  0  0
    3.9556   -1.3671    0.8290 H   0  0  0  0  0  0  0  0  0  0  0  0
    4.5086   -2.4868    2.9505 H   0  0  0  0  0  0  0  0  0  0  0  0
    5.7134   -1.2593    4.7378 H   0  0  0  0  0  0  0  0  0  0  0  0
    6.3530    1.1104    4.3912 H   0  0  0  0  0  0  0  0  0  0  0  0
    5.8069    2.2546    2.3078 H   0  0  0  0  0  0  0  0  0  0  0  0
    3.2114    1.0335   -2.4563 H   0  0  0  0  0  0  0  0  0  0  0  0
    3.8443   -0.2485   -4.4548 H   0  0  0  0  0  0  0  0  0  0  0  0
    5.8795   -1.6670   -4.4462 H   0  0  0  0  0  0  0  0  0  0  0  0
    7.2790   -1.8045   -2.4030 H   0  0  0  0  0  0  0  0  0  0  0  0
    6.6871   -0.5221   -0.3986 H   0  0  0  0  0  0  0  0  0  0  0  0
    3.2888    3.6618   -0.7200 H   0  0  0  0  0  0  0  0  0  0  0  0
    4.3479    5.8256   -1.1393 H   0  0  0  0  0  0  0  0  0  0  0  0
    6.8138    6.0685   -1.0226 H   0  0  0  0  0  0  0  0  0  0  0  0
    8.2222    4.1087   -0.4485 H   0  0  0  0  0  0  0  0  0  0  0  0
    7.1878    1.9356    0.0252 H   0  0  0  0  0  0  0  0  0  0  0  0
  1  2  2  0  0  0  0
  1 23  1  0  0  0  0
  1 24  1  0  0  0  0
  2  3  1  0  0  0  0
  2 25  1  0  0  0  0
  3  4  1  0  0  0  0
  4  5  1  0  0  0  0
  4 11  1  0  0  0  0
  4 17  1  0  0  0  0
  5  6  2  0  0  0  0
  5 10  1  0  0  0  0
  6  7  1  0  0  0  0
  6 26  1  0  0  0  0
  7  8  2  0  0  0  0
  7 27  1  0  0  0  0
  8  9  1  0  0  0  0
  8 28  1  0  0  0  0
  9 10  2  0  0  0  0
  9 29  1  0  0  0  0
 10 30  1  0  0  0  0
 11 12  2  0  0  0  0
 11 16  1  0  0  0  0
 12 13  1  0  0  0  0
 12 31  1  0  0  0  0
 13 14  2  0  0  0  0
 13 32  1  0  0  0  0
 14 15  1  0  0  0  0
 14 33  1  0  0  0  0
 15 16  2  0  0  0  0
 15 34  1  0  0  0  0
 16 35  1  0  0  0  0
 17 18  2  0  0  0  0
 17 22  1  0  0  0  0
 18 19  1  0  0  0  0
 18 36  1  0  0  0  0
 19 20  2  0  0  0  0
 19 37  1  0  0  0  0
 20 21  1  0  0  0  0
 20 38  1  0  0  0  0
 21 22  2  0  0  0  0
 21 39  1  0  0  0  0
 22 40  1  0  0  0  0
M  END
