
 OpenBabel10072619553D

 48 52  0  0  0  0  0  0  0  0999 V2000
    2.3812   -0.2708   -0.0711 C   0  0  0  0  0  0  0  0  0  0  0  0
    0.8897   -0.1332   -0.0301 C   0  0  0  0  0  0  0  0  0  0  0  0
    0.1420   -0.8660    0.9008 C   0  0  0  0  0  0  0  0  0  0  0  0
   -1.2467   -0.7257    0.9614 C   0  0  0  0  0  0  0  0  0  0  0  0
   -1.8973    0.1557    0.0861 C   0  0  0  0  0  0  0  0  0  0  0  0
   -1.1476    0.9014   -0.8369 C   0  0  0  0  0  0  0  0  0  0  0  0
    0.2397    0.7621   -0.8868 C   0  0  0  0  0  0  0  0  0  0  0  0
   -3.3129    0.2738    0.1068 N   0  0  0  0  0  0  0  0  0  0  0  0
   -4.0831   -0.4264    0.9764 N   0  0  0  0  0  0  0  0  0  0  0  0
   -5.3310   -0.1650    0.5591 C   0  0  0  0  0  0  0  0  0  0  0  0
   -6.5604   -0.6617    1.0421 C   0  0  0  0  0  0  0  0  0  0  0  0
   -7.7110   -0.2195    0.3529 C   0  0  0  0  0  0  0  0  0  0  0  0
   -7.5994    0.6557   -0.7858 C   0  0  0  0  0  0  0  0  0  0  0  0
   -6.3884    1.1950   -1.2655 C   0  0  0  0  0  0  0  0  0  0  0  0
   -5.2527    0.7568   -0.5672 C   0  0  0  0  0  0  0  0  0  0  0  0
   -3.9697    1.0514   -0.7899 N   0  0  0  0  0  0  0  0  0  0  0  0
   -9.0338    1.1332   -1.6485 Cl  0  0  0  0  0  0  0  0  0  0  0  0
   -9.0133   -0.6904    0.6851 N   0  0  0  0  0  0  0  0  0  0  0  0
   -9.5416   -1.1825    1.8547 C   0  0  0  0  0  0  0  0  0  0  0  0
   -8.9071   -1.1016    3.3990 S   0  0  0  0  0  0  0  0  0  0  0  0
  -10.7698   -1.8036    1.7353 N   0  0  0  0  0  0  0  0  0  0  0  0
  -11.4991   -2.1254    0.5988 C   0  0  0  0  0  0  0  0  0  0  0  0
  -11.2520   -1.6590   -0.5143 O   0  0  0  0  0  0  0  0  0  0  0  0
  -12.5790   -3.0519    0.8636 C   0  0  0  0  0  0  0  0  0  0  0  0
  -13.3950   -3.7735    0.0151 C   0  0  0  0  0  0  0  0  0  0  0  0
  -14.2927   -4.5120    0.8303 C   0  0  0  0  0  0  0  0  0  0  0  0
  -15.3469   -5.4122    0.6015 C   0  0  0  0  0  0  0  0  0  0  0  0
  -16.0472   -5.9177    1.7071 C   0  0  0  0  0  0  0  0  0  0  0  0
  -15.7073   -5.5415    3.0111 C   0  0  0  0  0  0  0  0  0  0  0  0
  -14.6443   -4.6679    3.2631 C   0  0  0  0  0  0  0  0  0  0  0  0
  -13.9723   -4.1848    2.1404 C   0  0  0  0  0  0  0  0  0  0  0  0
  -12.9185   -3.3226    2.1660 O   0  0  0  0  0  0  0  0  0  0  0  0
    2.6732   -1.3192    0.0471 H   0  0  0  0  0  0  0  0  0  0  0  0
    2.8280    0.3227    0.7318 H   0  0  0  0  0  0  0  0  0  0  0  0
    2.7813    0.0747   -1.0302 H   0  0  0  0  0  0  0  0  0  0  0  0
    0.6434   -1.5519    1.5815 H   0  0  0  0  0  0  0  0  0  0  0  0
   -1.8024   -1.3197    1.6846 H   0  0  0  0  0  0  0  0  0  0  0  0
   -1.6292    1.5946   -1.5239 H   0  0  0  0  0  0  0  0  0  0  0  0
    0.8078    1.3503   -1.6055 H   0  0  0  0  0  0  0  0  0  0  0  0
   -6.5684   -1.3854    1.8421 H   0  0  0  0  0  0  0  0  0  0  0  0
   -6.3206    1.8629   -2.1134 H   0  0  0  0  0  0  0  0  0  0  0  0
   -9.7107   -0.5250   -0.0469 H   0  0  0  0  0  0  0  0  0  0  0  0
  -11.1146   -2.2063    2.6010 H   0  0  0  0  0  0  0  0  0  0  0  0
  -13.3486   -3.7576   -1.0638 H   0  0  0  0  0  0  0  0  0  0  0  0
  -15.6293   -5.7016   -0.4057 H   0  0  0  0  0  0  0  0  0  0  0  0
  -16.8747   -6.6057    1.5418 H   0  0  0  0  0  0  0  0  0  0  0  0
  -16.2810   -5.9309    3.8502 H   0  0  0  0  0  0  0  0  0  0  0  0
  -14.3693   -4.3624    4.2669 H   0  0  0  0  0  0  0  0  0  0  0  0
  1  2  1  0  0  0  0
  1 33  1  0  0  0  0
  1 34  1  0  0  0  0
  1 35  1  0  0  0  0
  2  3  2  0  0  0  0
  2  7  1  0  0  0  0
  3  4  1  0  0  0  0
  3 36  1  0  0  0  0
  4  5  2  0  0  0  0
  4 37  1  0  0  0  0
  5  6  1  0  0  0  0
  5  8  1  0  0  0  0
  6  7  2  0  0  0  0
  6 38  1  0  0  0  0
  7 39  1  0  0  0  0
  8  9  1  0  0  0  0
  8 16  1  0  0  0  0
  9 10  2  0  0  0  0
 10 11  1  0  0  0  0
 10 15  1  0  0  0  0
 11 12  2  0  0  0  0
 11 40  1  0  0  0  0
 12 13  1  0  0  0  0
 12 18  1  0  0  0  0
 13 14  2  0  0  0  0
 13 17  1  0  0  0  0
 14 15  1  0  0  0  0
 14 41  1  0  0  0  0
 15 16  2  0  0  0  0
 18 19  1  0  0  0  0
 18 42  1  0  0  0  0
 19 20  2  0  0  0  0
 19 21  1  0  0  0  0
 21 22  1  0  0  0  0
 21 43  1  0  0  0  0
 22 23  2  0  0  0  0
 22 24  1  0  0  0  0
 24 25  2  0  0  0  0
 24 32  1  0  0  0  0
 25 26  1  0  0  0  0
 25 44  1  0  0  0  0
 26 27  2  0  0  0  0
 26 31  1  0  0  0  0
 27 28  1  0  0  0  0
 27 45  1  0  0  0  0
 28 29  2  0  0  0  0
 28 46  1  0  0  0  0
 29 30  1  0  0  0  0
 29 47  1  0  0  0  0
 30 31  2  0  0  0  0
 30 48  1  0  0  0  0
 31 32  1  0  0  0  0
M  END
