
 OpenBabel10072616403D

 63 66  0  0  0  0  0  0  0  0999 V2000
    4.5214   -0.5964    2.5687 C   0  0  0  0  0  0  0  0  0  0  0  0
    3.4918   -1.0605    1.5679 C   0  0  0  0  0  0  0  0  0  0  0  0
    3.2223   -0.3442    0.3766 C   0  0  0  0  0  0  0  0  0  0  0  0
    2.2194   -0.8155   -0.4785 C   0  0  0  0  0  0  0  0  0  0  0  0
    1.5235   -1.9974   -0.1816 C   0  0  0  0  0  0  0  0  0  0  0  0
    1.8111   -2.7235    0.9746 C   0  0  0  0  0  0  0  0  0  0  0  0
    2.7884   -2.2489    1.8463 C   0  0  0  0  0  0  0  0  0  0  0  0
    0.4596   -2.4632   -1.0821 N   0  3  0  0  0  0  0  0  0  0  0  0
    0.1602   -1.7453   -2.0469 O   0  0  0  0  0  0  0  0  0  0  0  0
   -0.0860   -3.5445   -0.8187 O   0  5  0  0  0  0  0  0  0  0  0  0
    3.9370    0.8555    0.1336 N   0  0  0  0  0  0  0  0  0  0  0  0
    4.1472    1.5970   -1.0062 C   0  0  0  0  0  0  0  0  0  0  0  0
    3.8366    1.2159   -2.6025 S   0  0  0  0  0  0  0  0  0  0  0  0
    4.7387    2.8334   -0.7988 N   0  0  0  0  0  0  0  0  0  0  0  0
    5.1421    3.4269    0.3888 C   0  0  0  0  0  0  0  0  0  0  0  0
    5.0897    2.8818    1.4857 O   0  0  0  0  0  0  0  0  0  0  0  0
    5.6825    4.7992    0.2402 C   0  0  0  0  0  0  0  0  0  0  0  0
    6.7570    4.9797   -0.6342 C   0  0  0  0  0  0  0  0  0  0  0  0
    7.2749    6.2536   -0.7881 C   0  0  0  0  0  0  0  0  0  0  0  0
    6.7692    7.3101   -0.1083 N   0  0  0  0  0  0  0  0  0  0  0  0
    5.7336    7.1386    0.7290 C   0  0  0  0  0  0  0  0  0  0  0  0
    5.2305    8.2541    1.3858 C   0  0  0  0  0  0  0  0  0  0  0  0
    4.1432    8.1697    2.2566 C   0  0  0  0  0  0  0  0  0  0  0  0
    3.5420    6.9407    2.4855 C   0  0  0  0  0  0  0  0  0  0  0  0
    4.0326    5.8045    1.8433 C   0  0  0  0  0  0  0  0  0  0  0  0
    5.1340    5.8859    0.9548 C   0  0  0  0  0  0  0  0  0  0  0  0
    8.4091    6.5540   -1.6810 C   0  0  0  0  0  0  0  0  0  0  0  0
    9.4045    7.4680   -1.2792 C   0  0  0  0  0  0  0  0  0  0  0  0
   10.4928    7.7690   -2.1016 C   0  0  0  0  0  0  0  0  0  0  0  0
   10.5838    7.1737   -3.3589 C   0  0  0  0  0  0  0  0  0  0  0  0
    9.6123    6.2708   -3.7845 C   0  0  0  0  0  0  0  0  0  0  0  0
    8.5353    5.9617   -2.9504 C   0  0  0  0  0  0  0  0  0  0  0  0
   11.5075    8.6351   -1.8009 O   0  0  0  0  0  0  0  0  0  0  0  0
   11.6345    9.0265   -0.4321 C   0  0  0  0  0  0  0  0  0  0  0  0
   12.9067    9.8731   -0.2800 C   0  0  0  0  0  0  0  0  0  0  0  0
   12.7886   11.1894   -1.0520 C   0  0  0  0  0  0  0  0  0  0  0  0
   13.1929   10.1438    1.1953 C   0  0  0  0  0  0  0  0  0  0  0  0
    5.4943   -0.4602    2.0849 H   0  0  0  0  0  0  0  0  0  0  0  0
    4.6608   -1.3270    3.3731 H   0  0  0  0  0  0  0  0  0  0  0  0
    4.2015    0.3443    3.0289 H   0  0  0  0  0  0  0  0  0  0  0  0
    1.9250   -0.2511   -1.3552 H   0  0  0  0  0  0  0  0  0  0  0  0
    1.2784   -3.6401    1.2184 H   0  0  0  0  0  0  0  0  0  0  0  0
    2.9971   -2.8123    2.7547 H   0  0  0  0  0  0  0  0  0  0  0  0
    4.4405    1.2276    0.9394 H   0  0  0  0  0  0  0  0  0  0  0  0
    4.8233    3.3708   -1.6528 H   0  0  0  0  0  0  0  0  0  0  0  0
    7.2037    4.1376   -1.1525 H   0  0  0  0  0  0  0  0  0  0  0  0
    5.6974    9.2221    1.2137 H   0  0  0  0  0  0  0  0  0  0  0  0
    3.7727    9.0642    2.7511 H   0  0  0  0  0  0  0  0  0  0  0  0
    2.6951    6.8647    3.1629 H   0  0  0  0  0  0  0  0  0  0  0  0
    3.5498    4.8505    2.0480 H   0  0  0  0  0  0  0  0  0  0  0  0
    9.2957    7.9420   -0.3076 H   0  0  0  0  0  0  0  0  0  0  0  0
   11.4199    7.4170   -4.0101 H   0  0  0  0  0  0  0  0  0  0  0  0
    9.6910    5.8173   -4.7696 H   0  0  0  0  0  0  0  0  0  0  0  0
    7.7808    5.2711   -3.3201 H   0  0  0  0  0  0  0  0  0  0  0  0
   11.7156    8.1319    0.1984 H   0  0  0  0  0  0  0  0  0  0  0  0
   10.7622    9.6159   -0.1242 H   0  0  0  0  0  0  0  0  0  0  0  0
   13.7516    9.3169   -0.7057 H   0  0  0  0  0  0  0  0  0  0  0  0
   11.9535   11.7929   -0.6801 H   0  0  0  0  0  0  0  0  0  0  0  0
   12.6263   11.0095   -2.1197 H   0  0  0  0  0  0  0  0  0  0  0  0
   13.7042   11.7818   -0.9514 H   0  0  0  0  0  0  0  0  0  0  0  0
   12.3780   10.7071    1.6623 H   0  0  0  0  0  0  0  0  0  0  0  0
   14.1163   10.7203    1.3138 H   0  0  0  0  0  0  0  0  0  0  0  0
   13.3142    9.2045    1.7453 H   0  0  0  0  0  0  0  0  0  0  0  0
  1  2  1  0  0  0  0
  1 38  1  0  0  0  0
  1 39  1  0  0  0  0
  1 40  1  0  0  0  0
  2  3  2  0  0  0  0
  2  7  1  0  0  0  0
  3  4  1  0  0  0  0
  3 11  1  0  0  0  0
  4  5  2  0  0  0  0
  4 41  1  0  0  0  0
  5  6  1  0  0  0  0
  5  8  1  0  0  0  0
  6  7  2  0  0  0  0
  6 42  1  0  0  0  0
  7 43  1  0  0  0  0
  8  9  2  0  0  0  0
  8 10  1  0  0  0  0
 11 12  1  0  0  0  0
 11 44  1  0  0  0  0
 12 13  2  0  0  0  0
 12 14  1  0  0  0  0
 14 15  1  0  0  0  0
 14 45  1  0  0  0  0
 15 16  2  0  0  0  0
 15 17  1  0  0  0  0
 17 18  2  0  0  0  0
 17 26  1  0  0  0  0
 18 19  1  0  0  0  0
 18 46  1  0  0  0  0
 19 20  2  0  0  0  0
 19 27  1  0  0  0  0
 20 21  1  0  0  0  0
 21 22  2  0  0  0  0
 21 26  1  0  0  0  0
 22 23  1  0  0  0  0
 22 47  1  0  0  0  0
 23 24  2  0  0  0  0
 23 48  1  0  0  0  0
 24 25  1  0  0  0  0
 24 49  1  0  0  0  0
 25 26  2  0  0  0  0
 25 50  1  0  0  0  0
 27 28  2  0  0  0  0
 27 32  1  0  0  0  0
 28 29  1  0  0  0  0
 28 51  1  0  0  0  0
 29 30  2  0  0  0  0
 29 33  1  0  0  0  0
 30 31  1  0  0  0  0
 30 52  1  0  0  0  0
 31 32  2  0  0  0  0
 31 53  1  0  0  0  0
 32 54  1  0  0  0  0
 33 34  1  0  0  0  0
 34 35  1  0  0  0  0
 34 55  1  0  0  0  0
 34 56  1  0  0  0  0
 35 36  1  0  0  0  0
 35 37  1  0  0  0  0
 35 57  1  0  0  0  0
 36 58  1  0  0  0  0
 36 59  1  0  0  0  0
 36 60  1  0  0  0  0
 37 61  1  0  0  0  0
 37 62  1  0  0  0  0
 37 63  1  0  0  0  0
M  CHG  2   8   1  10  -1
M  END
