
 OpenBabel10072619473D

 32 32  0  0  0  0  0  0  0  0999 V2000
    1.0510    0.0948   -0.3009 C   0  0  0  0  0  0  0  0  0  0  0  0
    2.2846    0.7923   -0.4271 O   0  0  0  0  0  0  0  0  0  0  0  0
    2.9195    1.1196    0.7389 C   0  0  0  0  0  0  0  0  0  0  0  0
    2.3551    1.0732    2.0146 C   0  0  0  0  0  0  0  0  0  0  0  0
    3.1229    1.4041    3.1354 C   0  0  0  0  0  0  0  0  0  0  0  0
    4.4566    1.7872    2.9779 C   0  0  0  0  0  0  0  0  0  0  0  0
    5.0192    1.8668    1.7038 C   0  0  0  0  0  0  0  0  0  0  0  0
    4.2457    1.5355    0.5895 C   0  0  0  0  0  0  0  0  0  0  0  0
    5.3032    2.0846    4.1468 C   0  0  0  0  0  0  0  0  0  0  0  0
    4.8616    1.9716    5.3611 N   0  0  0  0  0  0  0  0  0  0  0  0
    5.7749    2.2684    6.3397 N   0  0  0  0  0  0  0  0  0  0  0  0
    6.3060    3.5275    6.5606 C   0  0  0  0  0  0  0  0  0  0  0  0
    5.9844    4.9367    5.7175 S   0  0  0  0  0  0  0  0  0  0  0  0
    7.2141    3.6006    7.5830 N   0  0  0  0  0  0  0  0  0  0  0  0
    7.7469    2.5226    8.3878 C   0  0  0  0  0  0  0  0  0  0  0  0
    9.1763    2.8458    8.6741 C   0  0  0  0  0  0  0  0  0  0  0  0
    9.6802    3.0808    9.8924 C   0  0  0  0  0  0  0  0  0  0  0  0
    0.7499   -0.2297   -1.3013 H   0  0  0  0  0  0  0  0  0  0  0  0
    0.2688    0.7530    0.0899 H   0  0  0  0  0  0  0  0  0  0  0  0
    1.1566   -0.8009    0.3212 H   0  0  0  0  0  0  0  0  0  0  0  0
    1.3220    0.7842    2.1728 H   0  0  0  0  0  0  0  0  0  0  0  0
    2.6770    1.3560    4.1263 H   0  0  0  0  0  0  0  0  0  0  0  0
    6.0527    2.1724    1.5650 H   0  0  0  0  0  0  0  0  0  0  0  0
    4.6838    1.5870   -0.4040 H   0  0  0  0  0  0  0  0  0  0  0  0
    6.3477    2.3810    3.9370 H   0  0  0  0  0  0  0  0  0  0  0  0
    5.5629    1.7780    7.2025 H   0  0  0  0  0  0  0  0  0  0  0  0
    7.5479    4.5377    7.7797 H   0  0  0  0  0  0  0  0  0  0  0  0
    7.6837    1.5694    7.8554 H   0  0  0  0  0  0  0  0  0  0  0  0
    7.1421    2.4554    9.2981 H   0  0  0  0  0  0  0  0  0  0  0  0
    9.8444    2.8759    7.8155 H   0  0  0  0  0  0  0  0  0  0  0  0
    9.0622    3.0592   10.7843 H   0  0  0  0  0  0  0  0  0  0  0  0
   10.7355    3.3037   10.0188 H   0  0  0  0  0  0  0  0  0  0  0  0
  1  2  1  0  0  0  0
  1 18  1  0  0  0  0
  1 19  1  0  0  0  0
  1 20  1  0  0  0  0
  2  3  1  0  0  0  0
  3  4  2  0  0  0  0
  3  8  1  0  0  0  0
  4  5  1  0  0  0  0
  4 21  1  0  0  0  0
  5  6  2  0  0  0  0
  5 22  1  0  0  0  0
  6  7  1  0  0  0  0
  6  9  1  0  0  0  0
  7  8  2  0  0  0  0
  7 23  1  0  0  0  0
  8 24  1  0  0  0  0
  9 10  2  0  0  0  0
  9 25  1  0  0  0  0
 10 11  1  0  0  0  0
 11 12  1  0  0  0  0
 11 26  1  0  0  0  0
 12 13  2  0  0  0  0
 12 14  1  0  0  0  0
 14 15  1  0  0  0  0
 14 27  1  0  0  0  0
 15 16  1  0  0  0  0
 15 28  1  0  0  0  0
 15 29  1  0  0  0  0
 16 17  2  0  0  0  0
 16 30  1  0  0  0  0
 17 31  1  0  0  0  0
 17 32  1  0  0  0  0
M  END
