
 OpenBabel10072619483D

 28 28  0  0  1  0  0  0  0  0999 V2000
    4.1232   -3.0229    0.2493 C   0  0  0  0  0  0  0  0  0  0  0  0
    3.6512   -1.7245   -0.1926 N   0  0  0  0  0  0  0  0  0  0  0  0
    2.6946   -1.1229    0.4255 C   0  0  0  0  0  0  0  0  0  0  0  0
    2.0380   -1.6328    1.5255 N   0  0  0  0  0  0  0  0  0  0  0  0
    1.0376   -0.9486    2.3301 C   0  0  0  0  0  0  0  0  0  0  0  0
    0.7435   -1.7090    3.6304 C   0  0  3  0  0  0  0  0  0  0  0  0
    0.0934   -3.0615    3.3969 C   0  0  0  0  0  0  0  0  0  0  0  0
   -1.3654   -2.7012    3.1950 C   0  0  0  0  0  0  0  0  0  0  0  0
   -1.6021   -1.4850    3.9193 O   0  0  0  0  0  0  0  0  0  0  0  0
   -0.3484   -0.9978    4.4194 C   0  0  0  0  0  0  0  0  0  0  0  0
    2.1841    0.0753    0.0008 N   0  0  0  0  0  0  0  0  0  0  0  0
    2.9414    0.8304   -0.8173 N   0  3  0  0  0  0  0  0  0  0  0  0
    4.0939    1.0963   -0.4716 O   0  0  0  0  0  0  0  0  0  0  0  0
    2.3117    1.3246   -1.7567 O   0  5  0  0  0  0  0  0  0  0  0  0
    4.9384   -3.3499   -0.4052 H   0  0  0  0  0  0  0  0  0  0  0  0
    3.3317   -3.7765    0.1839 H   0  0  0  0  0  0  0  0  0  0  0  0
    4.5166   -2.9821    1.2696 H   0  0  0  0  0  0  0  0  0  0  0  0
    2.4915   -2.4248    1.9705 H   0  0  0  0  0  0  0  0  0  0  0  0
    0.1253   -0.8322    1.7353 H   0  0  0  0  0  0  0  0  0  0  0  0
    1.3899    0.0588    2.5816 H   0  0  0  0  0  0  0  0  0  0  0  0
    1.6682   -1.7986    4.2120 H   0  0  0  0  0  0  0  0  0  0  0  0
    0.1915   -3.6724    4.3043 H   0  0  0  0  0  0  0  0  0  0  0  0
    0.5036   -3.6367    2.5603 H   0  0  0  0  0  0  0  0  0  0  0  0
   -2.0489   -3.4781    3.5483 H   0  0  0  0  0  0  0  0  0  0  0  0
   -1.5811   -2.5056    2.1400 H   0  0  0  0  0  0  0  0  0  0  0  0
   -0.2917   -1.2557    5.4828 H   0  0  0  0  0  0  0  0  0  0  0  0
   -0.3192    0.0924    4.3283 H   0  0  0  0  0  0  0  0  0  0  0  0
    1.2185    0.0053   -0.2768 H   0  0  0  0  0  0  0  0  0  0  0  0
  1  2  1  0  0  0  0
  1 15  1  0  0  0  0
  1 16  1  0  0  0  0
  1 17  1  0  0  0  0
  2  3  2  3  0  0  0
  3  4  1  0  0  0  0
  3 11  1  0  0  0  0
  4  5  1  0  0  0  0
  4 18  1  0  0  0  0
  5  6  1  0  0  0  0
  5 19  1  0  0  0  0
  5 20  1  0  0  0  0
  6  7  1  0  0  0  0
  6 10  1  0  0  0  0
  6 21  1  0  0  0  0
  7  8  1  0  0  0  0
  7 22  1  0  0  0  0
  7 23  1  0  0  0  0
  8  9  1  0  0  0  0
  8 24  1  0  0  0  0
  8 25  1  0  0  0  0
  9 10  1  0  0  0  0
 10 26  1  0  0  0  0
 10 27  1  0  0  0  0
 11 12  1  0  0  0  0
 11 28  1  0  0  0  0
 12 13  2  0  0  0  0
 12 14  1  0  0  0  0
M  CHG  2  12   1  14  -1
M  END
