
 OpenBabel10072619513D

 33 36  0  0  0  0  0  0  0  0999 V2000
    1.5364   -1.1190   -0.4064 C   0  0  0  0  0  0  0  0  0  0  0  0
    2.1800    0.1184   -0.4949 C   0  0  0  0  0  0  0  0  0  0  0  0
    1.4865    1.3088   -0.2317 C   0  0  0  0  0  0  0  0  0  0  0  0
    0.1263    1.2384    0.0973 C   0  0  0  0  0  0  0  0  0  0  0  0
   -0.5117   -0.0004    0.1855 C   0  0  0  0  0  0  0  0  0  0  0  0
    0.1874   -1.1789   -0.0627 C   0  0  0  0  0  0  0  0  0  0  0  0
   -2.1811   -0.0703    0.5990 Cl  0  0  0  0  0  0  0  0  0  0  0  0
    2.2009    2.5861   -0.3688 C   0  0  0  0  0  0  0  0  0  0  0  0
    1.9617    3.6663    0.3912 C   0  0  0  0  0  0  0  0  0  0  0  0
    2.7486    4.8981    0.1794 C   0  0  0  0  0  0  0  0  0  0  0  0
    3.7243    5.0665   -0.6672 N   0  0  0  0  0  0  0  0  0  0  0  0
    4.1414    6.3547   -0.4989 N   0  0  0  0  0  0  0  0  0  0  0  0
    5.1214    7.1402   -1.0630 C   0  0  0  0  0  0  0  0  0  0  0  0
    5.0550    8.3354   -0.4726 N   0  0  0  0  0  0  0  0  0  0  0  0
    4.0379    8.3298    0.4727 N   0  0  0  0  0  0  0  0  0  0  0  0
    3.5287    7.1362    0.4207 C   0  0  0  0  0  0  0  0  0  0  0  0
    2.2893    6.2726    1.2135 S   0  0  0  0  0  0  0  0  0  0  0  0
    6.0752    6.7576   -2.1027 C   0  0  0  0  0  0  0  0  0  0  0  0
    7.0760    7.6536   -2.4801 C   0  0  0  0  0  0  0  0  0  0  0  0
    8.0172    7.4117   -3.4279 N   0  0  0  0  0  0  0  0  0  0  0  0
    7.9633    6.2137   -4.0417 C   0  0  0  0  0  0  0  0  0  0  0  0
    7.0144    5.2500   -3.7504 C   0  0  0  0  0  0  0  0  0  0  0  0
    6.0609    5.5283   -2.7692 C   0  0  0  0  0  0  0  0  0  0  0  0
    2.0876   -2.0346   -0.6072 H   0  0  0  0  0  0  0  0  0  0  0  0
    3.2345    0.1414   -0.7646 H   0  0  0  0  0  0  0  0  0  0  0  0
   -0.4508    2.1418    0.2748 H   0  0  0  0  0  0  0  0  0  0  0  0
   -0.3118   -2.1419    0.0053 H   0  0  0  0  0  0  0  0  0  0  0  0
    2.9781    2.6089   -1.1312 H   0  0  0  0  0  0  0  0  0  0  0  0
    1.2136    3.6692    1.1756 H   0  0  0  0  0  0  0  0  0  0  0  0
    7.1578    8.6335   -2.0125 H   0  0  0  0  0  0  0  0  0  0  0  0
    8.7252    6.0435   -4.7971 H   0  0  0  0  0  0  0  0  0  0  0  0
    7.0139    4.3014   -4.2761 H   0  0  0  0  0  0  0  0  0  0  0  0
    5.3171    4.7687   -2.5492 H   0  0  0  0  0  0  0  0  0  0  0  0
  1  2  2  0  0  0  0
  1  6  1  0  0  0  0
  1 24  1  0  0  0  0
  2  3  1  0  0  0  0
  2 25  1  0  0  0  0
  3  4  2  0  0  0  0
  3  8  1  0  0  0  0
  4  5  1  0  0  0  0
  4 26  1  0  0  0  0
  5  6  2  0  0  0  0
  5  7  1  0  0  0  0
  6 27  1  0  0  0  0
  8  9  2  0  0  0  0
  8 28  1  0  0  0  0
  9 10  1  0  0  0  0
  9 29  1  0  0  0  0
 10 11  2  0  0  0  0
 10 17  1  0  0  0  0
 11 12  1  0  0  0  0
 12 13  1  0  0  0  0
 12 16  1  0  0  0  0
 13 14  2  0  0  0  0
 13 18  1  0  0  0  0
 14 15  1  0  0  0  0
 15 16  2  0  0  0  0
 16 17  1  0  0  0  0
 18 19  2  0  0  0  0
 18 23  1  0  0  0  0
 19 20  1  0  0  0  0
 19 30  1  0  0  0  0
 20 21  2  0  0  0  0
 21 22  1  0  0  0  0
 21 31  1  0  0  0  0
 22 23  2  0  0  0  0
 22 32  1  0  0  0  0
 23 33  1  0  0  0  0
M  END
