
 OpenBabel10072619553D

 52 54  0  0  0  0  0  0  0  0999 V2000
   -0.7581    1.3478    0.2100 C   0  0  0  0  0  0  0  0  0  0  0  0
   -0.8727   -0.1727    0.1726 C   0  0  0  0  0  0  0  0  0  0  0  0
    0.4452   -0.8272   -0.2344 C   0  0  0  0  0  0  0  0  0  0  0  0
    1.6052   -0.3796    0.6672 C   0  0  0  0  0  0  0  0  0  0  0  0
    1.7083    1.1510    0.7033 C   0  0  0  0  0  0  0  0  0  0  0  0
    0.3877    1.7983    1.1104 C   0  0  0  0  0  0  0  0  0  0  0  0
    2.8748   -0.9471    0.2006 N   0  0  0  0  0  0  0  0  0  0  0  0
    3.3801   -2.2023    0.4782 C   0  0  0  0  0  0  0  0  0  0  0  0
    2.6973   -3.3234    1.5196 S   0  0  0  0  0  0  0  0  0  0  0  0
    4.5455   -2.4329   -0.2350 N   0  0  0  0  0  0  0  0  0  0  0  0
    5.2553   -3.6315   -0.1141 N   0  0  0  0  0  0  0  0  0  0  0  0
    6.5139   -3.6998   -0.6765 C   0  0  0  0  0  0  0  0  0  0  0  0
    7.0341   -2.7419   -1.2457 O   0  0  0  0  0  0  0  0  0  0  0  0
    7.2355   -4.9979   -0.5573 C   0  0  0  0  0  0  0  0  0  0  0  0
    6.5728   -6.2081   -0.3241 C   0  0  0  0  0  0  0  0  0  0  0  0
    7.2997   -7.4016   -0.2657 C   0  0  0  0  0  0  0  0  0  0  0  0
    8.6841   -7.4070   -0.4556 C   0  0  0  0  0  0  0  0  0  0  0  0
    9.3485   -6.2007   -0.6749 C   0  0  0  0  0  0  0  0  0  0  0  0
    8.6258   -5.0030   -0.7317 C   0  0  0  0  0  0  0  0  0  0  0  0
    9.2656   -8.6425   -0.3982 O   0  0  0  0  0  0  0  0  0  0  0  0
   10.5924   -8.7557   -0.9192 C   0  0  0  0  0  0  0  0  0  0  0  0
   10.9780  -10.2095   -1.0961 C   0  0  0  0  0  0  0  0  0  0  0  0
   10.0161  -11.2072   -1.3143 C   0  0  0  0  0  0  0  0  0  0  0  0
   10.3994  -12.5339   -1.5207 C   0  0  0  0  0  0  0  0  0  0  0  0
   11.7494  -12.8777   -1.5271 C   0  0  0  0  0  0  0  0  0  0  0  0
   12.7176  -11.8956   -1.3285 C   0  0  0  0  0  0  0  0  0  0  0  0
   12.3351  -10.5688   -1.1188 C   0  0  0  0  0  0  0  0  0  0  0  0
   -1.6995    1.7805    0.5664 H   0  0  0  0  0  0  0  0  0  0  0  0
   -0.5960    1.7275   -0.8064 H   0  0  0  0  0  0  0  0  0  0  0  0
   -1.6623   -0.4657   -0.5286 H   0  0  0  0  0  0  0  0  0  0  0  0
   -1.1716   -0.5405    1.1618 H   0  0  0  0  0  0  0  0  0  0  0  0
    0.6682   -0.5759   -1.2796 H   0  0  0  0  0  0  0  0  0  0  0  0
    0.3311   -1.9165   -0.2001 H   0  0  0  0  0  0  0  0  0  0  0  0
    1.4198   -0.7341    1.6876 H   0  0  0  0  0  0  0  0  0  0  0  0
    2.0093    1.5308   -0.2819 H   0  0  0  0  0  0  0  0  0  0  0  0
    2.4957    1.4539    1.4043 H   0  0  0  0  0  0  0  0  0  0  0  0
    0.4831    2.8891    1.0687 H   0  0  0  0  0  0  0  0  0  0  0  0
    0.1590    1.5366    2.1507 H   0  0  0  0  0  0  0  0  0  0  0  0
    3.2797   -0.4915   -0.6062 H   0  0  0  0  0  0  0  0  0  0  0  0
    5.0706   -1.6704   -0.6604 H   0  0  0  0  0  0  0  0  0  0  0  0
    4.8574   -4.3387    0.4979 H   0  0  0  0  0  0  0  0  0  0  0  0
    5.4936   -6.2587   -0.2168 H   0  0  0  0  0  0  0  0  0  0  0  0
    6.7774   -8.3406   -0.0930 H   0  0  0  0  0  0  0  0  0  0  0  0
   10.4250   -6.1548   -0.8041 H   0  0  0  0  0  0  0  0  0  0  0  0
    9.1557   -4.0695   -0.9166 H   0  0  0  0  0  0  0  0  0  0  0  0
   11.2847   -8.2848   -0.2113 H   0  0  0  0  0  0  0  0  0  0  0  0
   10.6679   -8.2724   -1.9015 H   0  0  0  0  0  0  0  0  0  0  0  0
    8.9572  -10.9569   -1.3244 H   0  0  0  0  0  0  0  0  0  0  0  0
    9.6426  -13.2979   -1.6793 H   0  0  0  0  0  0  0  0  0  0  0  0
   12.0465  -13.9102   -1.6902 H   0  0  0  0  0  0  0  0  0  0  0  0
   13.7713  -12.1627   -1.3397 H   0  0  0  0  0  0  0  0  0  0  0  0
   13.1058   -9.8145   -0.9753 H   0  0  0  0  0  0  0  0  0  0  0  0
  1  2  1  0  0  0  0
  1  6  1  0  0  0  0
  1 28  1  0  0  0  0
  1 29  1  0  0  0  0
  2  3  1  0  0  0  0
  2 30  1  0  0  0  0
  2 31  1  0  0  0  0
  3  4  1  0  0  0  0
  3 32  1  0  0  0  0
  3 33  1  0  0  0  0
  4  5  1  0  0  0  0
  4  7  1  0  0  0  0
  4 34  1  0  0  0  0
  5  6  1  0  0  0  0
  5 35  1  0  0  0  0
  5 36  1  0  0  0  0
  6 37  1  0  0  0  0
  6 38  1  0  0  0  0
  7  8  1  0  0  0  0
  7 39  1  0  0  0  0
  8  9  2  0  0  0  0
  8 10  1  0  0  0  0
 10 11  1  0  0  0  0
 10 40  1  0  0  0  0
 11 12  1  0  0  0  0
 11 41  1  0  0  0  0
 12 13  2  0  0  0  0
 12 14  1  0  0  0  0
 14 15  2  0  0  0  0
 14 19  1  0  0  0  0
 15 16  1  0  0  0  0
 15 42  1  0  0  0  0
 16 17  2  0  0  0  0
 16 43  1  0  0  0  0
 17 18  1  0  0  0  0
 17 20  1  0  0  0  0
 18 19  2  0  0  0  0
 18 44  1  0  0  0  0
 19 45  1  0  0  0  0
 20 21  1  0  0  0  0
 21 22  1  0  0  0  0
 21 46  1  0  0  0  0
 21 47  1  0  0  0  0
 22 23  2  0  0  0  0
 22 27  1  0  0  0  0
 23 24  1  0  0  0  0
 23 48  1  0  0  0  0
 24 25  2  0  0  0  0
 24 49  1  0  0  0  0
 25 26  1  0  0  0  0
 25 50  1  0  0  0  0
 26 27  2  0  0  0  0
 26 51  1  0  0  0  0
 27 52  1  0  0  0  0
M  END
