
 OpenBabel10072616443D

 56 59  0  0  0  0  0  0  0  0999 V2000
   -0.2610    1.2774    0.9555 C   0  0  0  0  0  0  0  0  0  0  0  0
   -1.2309    0.2890    0.7583 C   0  0  0  0  0  0  0  0  0  0  0  0
   -0.9298   -0.9241    0.1037 C   0  0  0  0  0  0  0  0  0  0  0  0
    0.3759   -1.1274   -0.3690 C   0  0  0  0  0  0  0  0  0  0  0  0
    1.3522   -0.1296   -0.1633 C   0  0  0  0  0  0  0  0  0  0  0  0
    1.0376    1.0684    0.4994 C   0  0  0  0  0  0  0  0  0  0  0  0
    2.7323   -0.3270   -0.6395 N   0  3  0  0  0  0  0  0  0  0  0  0
    2.9819   -1.3743   -1.2586 O   0  0  0  0  0  0  0  0  0  0  0  0
    3.5617    0.5569   -0.3956 O   0  5  0  0  0  0  0  0  0  0  0  0
   -1.9694   -1.9729    0.0628 C   0  0  0  0  0  0  0  0  0  0  0  0
   -2.3014   -2.6027    1.1990 C   0  0  0  0  0  0  0  0  0  0  0  0
   -3.6341   -3.6806    0.9692 S   0  0  0  0  0  0  0  0  0  0  0  0
   -3.7643   -3.2383   -0.7953 C   0  0  0  0  0  0  0  0  0  0  0  0
   -4.7338   -3.8789   -1.3400 N   0  0  0  0  0  0  0  0  0  0  0  0
   -5.2466   -3.8883   -2.6323 C   0  0  0  0  0  0  0  0  0  0  0  0
   -5.5676   -2.7389   -3.3500 C   0  0  0  0  0  0  0  0  0  0  0  0
   -6.1794   -2.8306   -4.6049 C   0  0  0  0  0  0  0  0  0  0  0  0
   -6.5395   -4.0809   -5.1251 C   0  0  0  0  0  0  0  0  0  0  0  0
   -6.3142   -5.2554   -4.3935 C   0  0  0  0  0  0  0  0  0  0  0  0
   -5.6669   -5.1352   -3.1475 C   0  0  0  0  0  0  0  0  0  0  0  0
   -6.8148   -6.5945   -4.8843 C   0  0  0  0  0  0  0  0  0  0  0  0
   -7.1925   -6.5923   -6.1956 F   0  0  0  0  0  0  0  0  0  0  0  0
   -5.8875   -7.5860   -4.7749 F   0  0  0  0  0  0  0  0  0  0  0  0
   -7.9122   -7.0151   -4.1958 F   0  0  0  0  0  0  0  0  0  0  0  0
   -2.7446   -2.3084   -1.0750 N   0  0  0  0  0  0  0  0  0  0  0  0
   -2.4941   -1.7404   -2.4005 C   0  0  0  0  0  0  0  0  0  0  0  0
   -2.8403   -0.2403   -2.4263 C   0  0  0  0  0  0  0  0  0  0  0  0
   -3.1593    0.2960   -3.7983 C   0  0  0  0  0  0  0  0  0  0  0  0
   -2.2647    0.1386   -4.8690 C   0  0  0  0  0  0  0  0  0  0  0  0
   -2.5695    0.6683   -6.1243 C   0  0  0  0  0  0  0  0  0  0  0  0
   -3.7649    1.3679   -6.3008 C   0  0  0  0  0  0  0  0  0  0  0  0
   -4.6544    1.5462   -5.2417 C   0  0  0  0  0  0  0  0  0  0  0  0
   -4.3474    1.0154   -3.9934 C   0  0  0  0  0  0  0  0  0  0  0  0
   -4.1715    2.0735   -7.8662 S   0  0  0  0  0  0  0  0  0  0  0  0
   -4.9994    3.2368   -7.6575 O   0  0  0  0  0  0  0  0  0  0  0  0
   -2.9996    2.0881   -8.7082 O   0  0  0  0  0  0  0  0  0  0  0  0
   -5.1780    0.8869   -8.4915 N   0  0  0  0  0  0  0  0  0  0  0  0
   -0.5158    2.2020    1.4736 H   0  0  0  0  0  0  0  0  0  0  0  0
   -2.2381    0.4670    1.1348 H   0  0  0  0  0  0  0  0  0  0  0  0
    0.6392   -2.0671   -0.8549 H   0  0  0  0  0  0  0  0  0  0  0  0
    1.7882    1.8403    0.6671 H   0  0  0  0  0  0  0  0  0  0  0  0
   -1.8468   -2.4359    2.1702 H   0  0  0  0  0  0  0  0  0  0  0  0
   -5.3741   -1.7644   -2.9140 H   0  0  0  0  0  0  0  0  0  0  0  0
   -6.4046   -1.9159   -5.1541 H   0  0  0  0  0  0  0  0  0  0  0  0
   -7.0357   -4.1157   -6.0940 H   0  0  0  0  0  0  0  0  0  0  0  0
   -5.5123   -6.0290   -2.5402 H   0  0  0  0  0  0  0  0  0  0  0  0
   -3.0278   -2.2959   -3.1791 H   0  0  0  0  0  0  0  0  0  0  0  0
   -1.4313   -1.8530   -2.6568 H   0  0  0  0  0  0  0  0  0  0  0  0
   -1.9997    0.3539   -2.0461 H   0  0  0  0  0  0  0  0  0  0  0  0
   -3.6785   -0.0430   -1.7459 H   0  0  0  0  0  0  0  0  0  0  0  0
   -1.3117   -0.3728   -4.7411 H   0  0  0  0  0  0  0  0  0  0  0  0
   -1.8738    0.5434   -6.9516 H   0  0  0  0  0  0  0  0  0  0  0  0
   -5.5820    2.0978   -5.3745 H   0  0  0  0  0  0  0  0  0  0  0  0
   -5.0363    1.1736   -3.1656 H   0  0  0  0  0  0  0  0  0  0  0  0
   -6.1063    1.2693   -8.6670 H   0  0  0  0  0  0  0  0  0  0  0  0
   -4.7419    0.4424   -9.2986 H   0  0  0  0  0  0  0  0  0  0  0  0
  1  2  2  0  0  0  0
  1  6  1  0  0  0  0
  1 38  1  0  0  0  0
  2  3  1  0  0  0  0
  2 39  1  0  0  0  0
  3  4  2  0  0  0  0
  3 10  1  0  0  0  0
  4  5  1  0  0  0  0
  4 40  1  0  0  0  0
  5  6  2  0  0  0  0
  5  7  1  0  0  0  0
  6 41  1  0  0  0  0
  7  8  2  0  0  0  0
  7  9  1  0  0  0  0
 10 11  2  0  0  0  0
 10 25  1  0  0  0  0
 11 12  1  0  0  0  0
 11 42  1  0  0  0  0
 12 13  1  0  0  0  0
 13 14  2  3  0  0  0
 13 25  1  0  0  0  0
 14 15  1  0  0  0  0
 15 16  2  0  0  0  0
 15 20  1  0  0  0  0
 16 17  1  0  0  0  0
 16 43  1  0  0  0  0
 17 18  2  0  0  0  0
 17 44  1  0  0  0  0
 18 19  1  0  0  0  0
 18 45  1  0  0  0  0
 19 20  2  0  0  0  0
 19 21  1  0  0  0  0
 20 46  1  0  0  0  0
 21 22  1  0  0  0  0
 21 23  1  0  0  0  0
 21 24  1  0  0  0  0
 25 26  1  0  0  0  0
 26 27  1  0  0  0  0
 26 47  1  0  0  0  0
 26 48  1  0  0  0  0
 27 28  1  0  0  0  0
 27 49  1  0  0  0  0
 27 50  1  0  0  0  0
 28 29  2  0  0  0  0
 28 33  1  0  0  0  0
 29 30  1  0  0  0  0
 29 51  1  0  0  0  0
 30 31  2  0  0  0  0
 30 52  1  0  0  0  0
 31 32  1  0  0  0  0
 31 34  1  0  0  0  0
 32 33  2  0  0  0  0
 32 53  1  0  0  0  0
 33 54  1  0  0  0  0
 34 35  2  0  0  0  0
 34 36  2  0  0  0  0
 34 37  1  0  0  0  0
 37 55  1  0  0  0  0
 37 56  1  0  0  0  0
M  CHG  2   7   1   9  -1
M  END
