
 OpenBabel10072619503D

 50 52  0  0  0  0  0  0  0  0999 V2000
    1.9982    1.8364    1.7598 C   0  0  0  0  0  0  0  0  0  0  0  0
    0.5888    1.4754    1.3892 C   0  0  0  0  0  0  0  0  0  0  0  0
    0.1038    1.7311    0.1142 C   0  0  0  0  0  0  0  0  0  0  0  0
   -1.1819    1.3848   -0.2639 C   0  0  0  0  0  0  0  0  0  0  0  0
   -2.0009    0.7485    0.6478 C   0  0  0  0  0  0  0  0  0  0  0  0
   -1.5446    0.4833    1.9393 C   0  0  0  0  0  0  0  0  0  0  0  0
   -0.2723    0.8369    2.2886 C   0  0  0  0  0  0  0  0  0  0  0  0
   -3.4063    0.3352    0.2423 C   0  0  0  0  0  0  0  0  0  0  0  0
   -4.0525   -0.7497    0.7751 C   0  0  0  0  0  0  0  0  0  0  0  0
   -5.6502   -0.9043    0.0925 S   0  0  0  0  0  0  0  0  0  0  0  0
   -5.3375    0.5001   -0.8681 C   0  0  0  0  0  0  0  0  0  0  0  0
   -4.1555    1.0190   -0.7006 N   0  0  0  0  0  0  0  0  0  0  0  0
   -6.3606    1.0813   -1.8303 C   0  0  0  0  0  0  0  0  0  0  0  0
   -7.6896    0.9493   -1.5714 C   0  0  0  0  0  0  0  0  0  0  0  0
   -8.6791    1.5113   -2.5020 N   0  0  0  0  0  0  0  0  0  0  0  0
   -9.1571    2.8898   -2.3222 C   0  0  0  0  0  0  0  0  0  0  0  0
  -10.0949    3.4288   -3.2034 C   0  0  0  0  0  0  0  0  0  0  0  0
  -10.5634    4.7150   -3.0217 C   0  0  0  0  0  0  0  0  0  0  0  0
  -10.0705    5.4680   -1.9701 C   0  0  0  0  0  0  0  0  0  0  0  0
   -9.1330    4.9624   -1.0802 C   0  0  0  0  0  0  0  0  0  0  0  0
   -8.6877    3.6526   -1.2908 C   0  0  0  0  0  0  0  0  0  0  0  0
   -8.5955    5.8142    0.0330 C   0  0  0  0  0  0  0  0  0  0  0  0
   -8.9973    7.0124    0.1671 O   0  0  0  0  0  0  0  0  0  0  0  0
   -7.6380    5.2812    0.9360 O   0  0  0  0  0  0  0  0  0  0  0  0
   -7.1295    6.0870    1.9889 C   0  0  0  0  0  0  0  0  0  0  0  0
  -10.6033    2.5963   -4.3691 C   0  0  0  0  0  0  0  0  0  0  0  0
  -10.1741    1.4122   -4.5392 O   0  0  0  0  0  0  0  0  0  0  0  0
  -11.5577    3.1416   -5.2681 O   0  0  0  0  0  0  0  0  0  0  0  0
  -12.0326    2.3638   -6.3571 C   0  0  0  0  0  0  0  0  0  0  0  0
   -5.8988    1.8099   -3.0818 C   0  0  0  0  0  0  0  0  0  0  0  0
   -5.5157    2.4144   -4.1200 N   0  0  0  0  0  0  0  0  0  0  0  0
    2.4744    2.3134    0.9288 H   0  0  0  0  0  0  0  0  0  0  0  0
    2.5373    0.9491    2.0187 H   0  0  0  0  0  0  0  0  0  0  0  0
    1.9873    2.5038    2.5960 H   0  0  0  0  0  0  0  0  0  0  0  0
    0.7202    2.1932   -0.5726 H   0  0  0  0  0  0  0  0  0  0  0  0
   -1.5236    1.5991   -1.2138 H   0  0  0  0  0  0  0  0  0  0  0  0
   -2.1635    0.0235    2.6253 H   0  0  0  0  0  0  0  0  0  0  0  0
    0.0631    0.6274    3.2419 H   0  0  0  0  0  0  0  0  0  0  0  0
   -3.6502   -1.3859    1.4812 H   0  0  0  0  0  0  0  0  0  0  0  0
   -8.0031    0.4546   -0.7217 H   0  0  0  0  0  0  0  0  0  0  0  0
   -9.0216    0.9646   -3.2456 H   0  0  0  0  0  0  0  0  0  0  0  0
  -11.2711    5.1093   -3.6611 H   0  0  0  0  0  0  0  0  0  0  0  0
  -10.4102    6.4343   -1.8439 H   0  0  0  0  0  0  0  0  0  0  0  0
   -7.9855    3.2520   -0.6493 H   0  0  0  0  0  0  0  0  0  0  0  0
   -6.4249    5.5216    2.5623 H   0  0  0  0  0  0  0  0  0  0  0  0
   -7.9351    6.3986    2.6205 H   0  0  0  0  0  0  0  0  0  0  0  0
   -6.6454    6.9479    1.5773 H   0  0  0  0  0  0  0  0  0  0  0  0
  -12.7401    2.9348   -6.9214 H   0  0  0  0  0  0  0  0  0  0  0  0
  -12.5047    1.4789   -5.9843 H   0  0  0  0  0  0  0  0  0  0  0  0
  -11.2110    2.0917   -6.9862 H   0  0  0  0  0  0  0  0  0  0  0  0
  1  2  1  0  0  0  0
  1 32  1  0  0  0  0
  1 33  1  0  0  0  0
  1 34  1  0  0  0  0
  2  3  2  0  0  0  0
  2  7  1  0  0  0  0
  3  4  1  0  0  0  0
  3 35  1  0  0  0  0
  4  5  2  0  0  0  0
  4 36  1  0  0  0  0
  5  6  1  0  0  0  0
  5  8  1  0  0  0  0
  6  7  2  0  0  0  0
  6 37  1  0  0  0  0
  7 38  1  0  0  0  0
  8  9  2  0  0  0  0
  8 12  1  0  0  0  0
  9 10  1  0  0  0  0
  9 39  1  0  0  0  0
 10 11  1  0  0  0  0
 11 12  2  0  0  0  0
 11 13  1  0  0  0  0
 13 14  2  0  0  0  0
 13 30  1  0  0  0  0
 14 15  1  0  0  0  0
 14 40  1  0  0  0  0
 15 16  1  0  0  0  0
 15 41  1  0  0  0  0
 16 17  2  0  0  0  0
 16 21  1  0  0  0  0
 17 18  1  0  0  0  0
 17 26  1  0  0  0  0
 18 19  2  0  0  0  0
 18 42  1  0  0  0  0
 19 20  1  0  0  0  0
 19 43  1  0  0  0  0
 20 21  2  0  0  0  0
 20 22  1  0  0  0  0
 21 44  1  0  0  0  0
 22 23  2  0  0  0  0
 22 24  1  0  0  0  0
 24 25  1  0  0  0  0
 25 45  1  0  0  0  0
 25 46  1  0  0  0  0
 25 47  1  0  0  0  0
 26 27  2  0  0  0  0
 26 28  1  0  0  0  0
 28 29  1  0  0  0  0
 29 48  1  0  0  0  0
 29 49  1  0  0  0  0
 29 50  1  0  0  0  0
 30 31  3  0  0  0  0
M  END
