
 OpenBabel10072616313D

 38 39  0  0  1  0  0  0  0  0999 V2000
    4.1387   -0.3150   -1.0094 C   0  0  0  0  0  0  0  0  0  0  0  0
    2.8835   -0.3456   -0.1511 C   0  0  0  0  0  0  0  0  0  0  0  0
    3.1480   -0.9391    1.2084 C   0  0  0  0  0  0  0  0  0  0  0  0
    3.5929   -0.1324    2.2613 C   0  0  0  0  0  0  0  0  0  0  0  0
    3.8578   -0.6823    3.5206 C   0  0  0  0  0  0  0  0  0  0  0  0
    3.6885   -2.0483    3.7469 C   0  0  0  0  0  0  0  0  0  0  0  0
    3.2414   -2.8561    2.6948 C   0  0  0  0  0  0  0  0  0  0  0  0
    2.9790   -2.3088    1.4347 C   0  0  0  0  0  0  0  0  0  0  0  0
    3.9232   -2.6716    4.9876 N   0  0  0  0  0  0  0  0  0  0  0  0
    4.4910   -2.1184    6.1138 C   0  0  0  0  0  0  0  0  0  0  0  0
    4.9896   -1.0062    6.2196 O   0  0  0  0  0  0  0  0  0  0  0  0
    4.4592   -3.0183    7.1611 N   0  0  0  0  0  0  0  0  0  0  0  0
    4.9230   -2.6063    8.4766 C   0  0  0  0  0  0  0  0  0  0  0  0
    5.0161   -3.7837    9.4456 C   0  0  3  0  0  0  0  0  0  0  0  0
    6.0836   -4.8088    9.0998 C   0  0  0  0  0  0  0  0  0  0  0  0
    5.5610   -6.0321    9.8109 C   0  0  0  0  0  0  0  0  0  0  0  0
    4.0664   -5.9095    9.6001 C   0  0  0  0  0  0  0  0  0  0  0  0
    3.7675   -4.5095    9.4807 O   0  0  0  0  0  0  0  0  0  0  0  0
    3.9175    0.1238   -1.9875 H   0  0  0  0  0  0  0  0  0  0  0  0
    4.5333   -1.3238   -1.1714 H   0  0  0  0  0  0  0  0  0  0  0  0
    4.9275    0.2826   -0.5402 H   0  0  0  0  0  0  0  0  0  0  0  0
    2.1013   -0.9212   -0.6608 H   0  0  0  0  0  0  0  0  0  0  0  0
    2.4863    0.6705   -0.0378 H   0  0  0  0  0  0  0  0  0  0  0  0
    3.7379    0.9357    2.1133 H   0  0  0  0  0  0  0  0  0  0  0  0
    4.1910   -0.0130    4.3077 H   0  0  0  0  0  0  0  0  0  0  0  0
    3.0949   -3.9233    2.8367 H   0  0  0  0  0  0  0  0  0  0  0  0
    2.6412   -2.9598    0.6317 H   0  0  0  0  0  0  0  0  0  0  0  0
    3.7750   -3.6680    5.0306 H   0  0  0  0  0  0  0  0  0  0  0  0
    3.6393   -3.6096    7.1891 H   0  0  0  0  0  0  0  0  0  0  0  0
    4.1912   -1.8786    8.8467 H   0  0  0  0  0  0  0  0  0  0  0  0
    5.8896   -2.0996    8.3814 H   0  0  0  0  0  0  0  0  0  0  0  0
    5.1921   -3.3991   10.4580 H   0  0  0  0  0  0  0  0  0  0  0  0
    7.0812   -4.5091    9.4320 H   0  0  0  0  0  0  0  0  0  0  0  0
    6.1236   -5.0016    8.0215 H   0  0  0  0  0  0  0  0  0  0  0  0
    5.7938   -5.9680   10.8804 H   0  0  0  0  0  0  0  0  0  0  0  0
    5.9693   -6.9718    9.4303 H   0  0  0  0  0  0  0  0  0  0  0  0
    3.4910   -6.3389   10.4250 H   0  0  0  0  0  0  0  0  0  0  0  0
    3.7562   -6.3945    8.6686 H   0  0  0  0  0  0  0  0  0  0  0  0
  1  2  1  0  0  0  0
  1 19  1  0  0  0  0
  1 20  1  0  0  0  0
  1 21  1  0  0  0  0
  2  3  1  0  0  0  0
  2 22  1  0  0  0  0
  2 23  1  0  0  0  0
  3  4  2  0  0  0  0
  3  8  1  0  0  0  0
  4  5  1  0  0  0  0
  4 24  1  0  0  0  0
  5  6  2  0  0  0  0
  5 25  1  0  0  0  0
  6  7  1  0  0  0  0
  6  9  1  0  0  0  0
  7  8  2  0  0  0  0
  7 26  1  0  0  0  0
  8 27  1  0  0  0  0
  9 10  1  0  0  0  0
  9 28  1  0  0  0  0
 10 11  2  0  0  0  0
 10 12  1  0  0  0  0
 12 13  1  0  0  0  0
 12 29  1  0  0  0  0
 13 14  1  0  0  0  0
 13 30  1  0  0  0  0
 13 31  1  0  0  0  0
 14 15  1  0  0  0  0
 14 18  1  0  0  0  0
 14 32  1  0  0  0  0
 15 16  1  0  0  0  0
 15 33  1  0  0  0  0
 15 34  1  0  0  0  0
 16 17  1  0  0  0  0
 16 35  1  0  0  0  0
 16 36  1  0  0  0  0
 17 18  1  0  0  0  0
 17 37  1  0  0  0  0
 17 38  1  0  0  0  0
M  END
