
 OpenBabel10072619423D

 28 29  0  0  0  0  0  0  0  0999 V2000
    2.0876    4.6408    2.5459 C   0  0  0  0  0  0  0  0  0  0  0  0
    2.6871    3.4068    1.9794 C   0  0  0  0  0  0  0  0  0  0  0  0
    3.9655    3.0910    2.0414 N   0  0  0  0  0  0  0  0  0  0  0  0
    4.2354    1.8930    1.4129 N   0  0  0  0  0  0  0  0  0  0  0  0
    3.1485    1.3585    0.9091 C   0  0  0  0  0  0  0  0  0  0  0  0
    1.7159    2.2420    1.1637 S   0  0  0  0  0  0  0  0  0  0  0  0
    3.0163    0.1983    0.2087 N   0  0  0  0  0  0  0  0  0  0  0  0
    4.0242   -0.6575   -0.1351 C   0  0  0  0  0  0  0  0  0  0  0  0
    3.7140   -1.6558   -0.7824 O   0  0  0  0  0  0  0  0  0  0  0  0
    5.2908   -0.3283    0.2714 N   0  0  0  0  0  0  0  0  0  0  0  0
    6.4901   -1.0327    0.0512 C   0  0  0  0  0  0  0  0  0  0  0  0
    6.5753   -2.2198   -0.6817 C   0  0  0  0  0  0  0  0  0  0  0  0
    7.8038   -2.8707   -0.8474 C   0  0  0  0  0  0  0  0  0  0  0  0
    8.9591   -2.3254   -0.2779 C   0  0  0  0  0  0  0  0  0  0  0  0
    8.8913   -1.1357    0.4551 C   0  0  0  0  0  0  0  0  0  0  0  0
    7.6573   -0.4959    0.6148 C   0  0  0  0  0  0  0  0  0  0  0  0
   10.2484   -3.0058   -0.4482 N   0  3  0  0  0  0  0  0  0  0  0  0
   10.2633   -4.0622   -1.0963 O   0  0  0  0  0  0  0  0  0  0  0  0
   11.2480   -2.4831    0.0656 O   0  5  0  0  0  0  0  0  0  0  0  0
    2.8718    5.3575    2.8109 H   0  0  0  0  0  0  0  0  0  0  0  0
    1.5181    4.4108    3.4516 H   0  0  0  0  0  0  0  0  0  0  0  0
    1.4222    5.1255    1.8242 H   0  0  0  0  0  0  0  0  0  0  0  0
    2.0962   -0.0676   -0.1087 H   0  0  0  0  0  0  0  0  0  0  0  0
    5.3694    0.5273    0.8139 H   0  0  0  0  0  0  0  0  0  0  0  0
    5.6998   -2.6705   -1.1398 H   0  0  0  0  0  0  0  0  0  0  0  0
    7.8347   -3.7945   -1.4216 H   0  0  0  0  0  0  0  0  0  0  0  0
    9.7782   -0.6976    0.9082 H   0  0  0  0  0  0  0  0  0  0  0  0
    7.6201    0.4285    1.1888 H   0  0  0  0  0  0  0  0  0  0  0  0
  1  2  1  0  0  0  0
  1 20  1  0  0  0  0
  1 21  1  0  0  0  0
  1 22  1  0  0  0  0
  2  3  2  0  0  0  0
  2  6  1  0  0  0  0
  3  4  1  0  0  0  0
  4  5  2  0  0  0  0
  5  6  1  0  0  0  0
  5  7  1  0  0  0  0
  7  8  1  0  0  0  0
  7 23  1  0  0  0  0
  8  9  2  0  0  0  0
  8 10  1  0  0  0  0
 10 11  1  0  0  0  0
 10 24  1  0  0  0  0
 11 12  2  0  0  0  0
 11 16  1  0  0  0  0
 12 13  1  0  0  0  0
 12 25  1  0  0  0  0
 13 14  2  0  0  0  0
 13 26  1  0  0  0  0
 14 15  1  0  0  0  0
 14 17  1  0  0  0  0
 15 16  2  0  0  0  0
 15 27  1  0  0  0  0
 16 28  1  0  0  0  0
 17 18  2  0  0  0  0
 17 19  1  0  0  0  0
M  CHG  2  17   1  19  -1
M  END
