
 OpenBabel10072616343D

 58 61  0  0  0  0  0  0  0  0999 V2000
    5.6205   -1.6351    1.0317 C   0  0  0  0  0  0  0  0  0  0  0  0
    4.5590   -0.6416    0.6990 C   0  0  0  0  0  0  0  0  0  0  0  0
    4.6507    0.7344    0.8204 C   0  0  0  0  0  0  0  0  0  0  0  0
    3.4781    1.2957    0.2850 C   0  0  0  0  0  0  0  0  0  0  0  0
    2.6797    0.2518   -0.1451 C   0  0  0  0  0  0  0  0  0  0  0  0
    3.3289   -0.9505    0.1135 N   0  0  0  0  0  0  0  0  0  0  0  0
    2.8182   -2.2542   -0.1572 C   0  0  0  0  0  0  0  0  0  0  0  0
    2.1547   -2.5186   -1.3592 C   0  0  0  0  0  0  0  0  0  0  0  0
    1.6264   -3.7910   -1.6141 C   0  0  0  0  0  0  0  0  0  0  0  0
    1.7527   -4.8149   -0.6761 C   0  0  0  0  0  0  0  0  0  0  0  0
    2.4198   -4.5455    0.5255 C   0  0  0  0  0  0  0  0  0  0  0  0
    2.9534   -3.2769    0.7846 C   0  0  0  0  0  0  0  0  0  0  0  0
    1.2317   -6.1146   -0.8486 N   0  0  0  0  0  0  0  0  0  0  0  0
    0.6177   -6.6408   -1.9781 C   0  0  0  0  0  0  0  0  0  0  0  0
    0.4999   -6.0606   -3.0480 O   0  0  0  0  0  0  0  0  0  0  0  0
    0.1512   -7.9228   -1.7152 N   0  0  0  0  0  0  0  0  0  0  0  0
   -0.4294   -8.8291   -2.6281 C   0  0  0  0  0  0  0  0  0  0  0  0
   -0.4637   -8.6380   -4.0095 C   0  0  0  0  0  0  0  0  0  0  0  0
   -1.0413   -9.5966   -4.8563 C   0  0  0  0  0  0  0  0  0  0  0  0
   -1.5927  -10.7622   -4.3298 C   0  0  0  0  0  0  0  0  0  0  0  0
   -1.5615  -10.9550   -2.9472 C   0  0  0  0  0  0  0  0  0  0  0  0
   -0.9789  -10.0032   -2.1038 C   0  0  0  0  0  0  0  0  0  0  0  0
   -2.1776  -11.7767   -5.0290 O   0  0  0  0  0  0  0  0  0  0  0  0
   -2.1782  -11.6915   -6.4437 C   0  0  0  0  0  0  0  0  0  0  0  0
   -0.9208  -11.6274   -6.9308 F   0  0  0  0  0  0  0  0  0  0  0  0
   -2.7635  -12.8041   -6.9408 F   0  0  0  0  0  0  0  0  0  0  0  0
   -2.8840  -10.6223   -6.8679 F   0  0  0  0  0  0  0  0  0  0  0  0
    1.2999    0.4247   -0.7060 C   0  0  0  0  0  0  0  0  0  0  0  0
    0.6928    1.7959   -0.2883 C   0  0  0  0  0  0  0  0  0  0  0  0
    1.7206    2.9410   -0.4923 C   0  0  0  0  0  0  0  0  0  0  0  0
    3.0637    2.6868    0.1827 C   0  0  0  0  0  0  0  0  0  0  0  0
    3.7795    3.6125    0.5567 O   0  0  0  0  0  0  0  0  0  0  0  0
    0.2239    1.7544    1.1820 C   0  0  0  0  0  0  0  0  0  0  0  0
   -0.5396    2.0771   -1.1698 C   0  0  0  0  0  0  0  0  0  0  0  0
    6.6031   -1.1498    1.0484 H   0  0  0  0  0  0  0  0  0  0  0  0
    5.6746   -2.4377    0.2903 H   0  0  0  0  0  0  0  0  0  0  0  0
    5.4534   -2.0659    2.0234 H   0  0  0  0  0  0  0  0  0  0  0  0
    5.4912    1.2803    1.2329 H   0  0  0  0  0  0  0  0  0  0  0  0
    2.0685   -1.7665   -2.1378 H   0  0  0  0  0  0  0  0  0  0  0  0
    1.1234   -3.9464   -2.5635 H   0  0  0  0  0  0  0  0  0  0  0  0
    2.5257   -5.3147    1.2861 H   0  0  0  0  0  0  0  0  0  0  0  0
    3.4247   -3.0997    1.7471 H   0  0  0  0  0  0  0  0  0  0  0  0
    1.4176   -6.7642   -0.1008 H   0  0  0  0  0  0  0  0  0  0  0  0
    0.1085   -8.1881   -0.7444 H   0  0  0  0  0  0  0  0  0  0  0  0
   -0.0365   -7.7522   -4.4712 H   0  0  0  0  0  0  0  0  0  0  0  0
   -1.0350   -9.3849   -5.9221 H   0  0  0  0  0  0  0  0  0  0  0  0
   -1.9914  -11.8579   -2.5192 H   0  0  0  0  0  0  0  0  0  0  0  0
   -0.9693  -10.1979   -1.0350 H   0  0  0  0  0  0  0  0  0  0  0  0
    0.6347   -0.3829   -0.3805 H   0  0  0  0  0  0  0  0  0  0  0  0
    1.3722    0.3829   -1.7999 H   0  0  0  0  0  0  0  0  0  0  0  0
    1.3174    3.8849   -0.1064 H   0  0  0  0  0  0  0  0  0  0  0  0
    1.9256    3.0805   -1.5613 H   0  0  0  0  0  0  0  0  0  0  0  0
    1.0447    1.5472    1.8758 H   0  0  0  0  0  0  0  0  0  0  0  0
   -0.5346    0.9770    1.3300 H   0  0  0  0  0  0  0  0  0  0  0  0
   -0.2222    2.7108    1.4780 H   0  0  0  0  0  0  0  0  0  0  0  0
   -0.2665    2.1290   -2.2299 H   0  0  0  0  0  0  0  0  0  0  0  0
   -1.0085    3.0305   -0.9014 H   0  0  0  0  0  0  0  0  0  0  0  0
   -1.2936    1.2895   -1.0590 H   0  0  0  0  0  0  0  0  0  0  0  0
  1  2  1  0  0  0  0
  1 35  1  0  0  0  0
  1 36  1  0  0  0  0
  1 37  1  0  0  0  0
  2  3  2  0  0  0  0
  2  6  1  0  0  0  0
  3  4  1  0  0  0  0
  3 38  1  0  0  0  0
  4  5  2  0  0  0  0
  4 31  1  0  0  0  0
  5  6  1  0  0  0  0
  5 28  1  0  0  0  0
  6  7  1  0  0  0  0
  7  8  2  0  0  0  0
  7 12  1  0  0  0  0
  8  9  1  0  0  0  0
  8 39  1  0  0  0  0
  9 10  2  0  0  0  0
  9 40  1  0  0  0  0
 10 11  1  0  0  0  0
 10 13  1  0  0  0  0
 11 12  2  0  0  0  0
 11 41  1  0  0  0  0
 12 42  1  0  0  0  0
 13 14  1  0  0  0  0
 13 43  1  0  0  0  0
 14 15  2  0  0  0  0
 14 16  1  0  0  0  0
 16 17  1  0  0  0  0
 16 44  1  0  0  0  0
 17 18  2  0  0  0  0
 17 22  1  0  0  0  0
 18 19  1  0  0  0  0
 18 45  1  0  0  0  0
 19 20  2  0  0  0  0
 19 46  1  0  0  0  0
 20 21  1  0  0  0  0
 20 23  1  0  0  0  0
 21 22  2  0  0  0  0
 21 47  1  0  0  0  0
 22 48  1  0  0  0  0
 23 24  1  0  0  0  0
 24 25  1  0  0  0  0
 24 26  1  0  0  0  0
 24 27  1  0  0  0  0
 28 29  1  0  0  0  0
 28 49  1  0  0  0  0
 28 50  1  0  0  0  0
 29 30  1  0  0  0  0
 29 33  1  0  0  0  0
 29 34  1  0  0  0  0
 30 31  1  0  0  0  0
 30 51  1  0  0  0  0
 30 52  1  0  0  0  0
 31 32  2  0  0  0  0
 33 53  1  0  0  0  0
 33 54  1  0  0  0  0
 33 55  1  0  0  0  0
 34 56  1  0  0  0  0
 34 57  1  0  0  0  0
 34 58  1  0  0  0  0
M  END
