
 OpenBabel10072619473D

 39 41  0  0  0  0  0  0  0  0999 V2000
    1.2535   -2.7350    0.5432 C   0  0  0  0  0  0  0  0  0  0  0  0
    0.0525   -1.9487    0.1033 C   0  0  0  0  0  0  0  0  0  0  0  0
   -1.2330   -2.4958    0.2203 C   0  0  0  0  0  0  0  0  0  0  0  0
   -2.3483   -1.7838   -0.2236 C   0  0  0  0  0  0  0  0  0  0  0  0
   -2.1758   -0.5190   -0.7904 C   0  0  0  0  0  0  0  0  0  0  0  0
   -0.8993    0.0292   -0.9368 C   0  0  0  0  0  0  0  0  0  0  0  0
    0.2119   -0.6886   -0.4902 C   0  0  0  0  0  0  0  0  0  0  0  0
   -3.5934    0.3687   -1.3808 S   0  0  0  0  0  0  0  0  0  0  0  0
   -3.1362    1.4274   -2.2560 O   0  0  0  0  0  0  0  0  0  0  0  0
   -4.5863   -0.5974   -1.7945 O   0  0  0  0  0  0  0  0  0  0  0  0
   -4.1037    1.1332    0.0603 N   0  0  0  0  0  0  0  0  0  0  0  0
   -5.4630    1.5906   -0.0004 C   0  0  0  0  0  0  0  0  0  0  0  0
   -5.8288    2.7546   -0.6703 C   0  0  0  0  0  0  0  0  0  0  0  0
   -7.1044    3.1955   -0.7710 N   0  0  0  0  0  0  0  0  0  0  0  0
   -8.0608    2.4167   -0.2159 C   0  0  0  0  0  0  0  0  0  0  0  0
   -7.7928    1.2306    0.4542 C   0  0  0  0  0  0  0  0  0  0  0  0
   -6.4688    0.8067    0.5525 C   0  0  0  0  0  0  0  0  0  0  0  0
   -9.3887    2.8240   -0.2406 O   0  0  0  0  0  0  0  0  0  0  0  0
   -9.7758    3.6839   -1.2364 C   0  0  0  0  0  0  0  0  0  0  0  0
   -9.4781    3.5009   -2.5819 C   0  0  0  0  0  0  0  0  0  0  0  0
   -9.9294    4.3092   -3.5736 N   0  0  0  0  0  0  0  0  0  0  0  0
  -10.7113    5.3446   -3.1986 C   0  0  0  0  0  0  0  0  0  0  0  0
  -11.0770    5.5999   -1.8853 C   0  0  0  0  0  0  0  0  0  0  0  0
  -10.6076    4.7454   -0.8901 C   0  0  0  0  0  0  0  0  0  0  0  0
    0.9946   -3.4179    1.3590 H   0  0  0  0  0  0  0  0  0  0  0  0
    2.0406   -2.0699    0.9136 H   0  0  0  0  0  0  0  0  0  0  0  0
    1.6478   -3.3191   -0.2943 H   0  0  0  0  0  0  0  0  0  0  0  0
   -1.3718   -3.4834    0.6563 H   0  0  0  0  0  0  0  0  0  0  0  0
   -3.3401   -2.2209   -0.1296 H   0  0  0  0  0  0  0  0  0  0  0  0
   -0.7571    1.0028   -1.4000 H   0  0  0  0  0  0  0  0  0  0  0  0
    1.2062   -0.2621   -0.6113 H   0  0  0  0  0  0  0  0  0  0  0  0
   -3.4685    1.9218    0.2066 H   0  0  0  0  0  0  0  0  0  0  0  0
   -5.0916    3.3841   -1.1610 H   0  0  0  0  0  0  0  0  0  0  0  0
   -8.5972    0.6450    0.8843 H   0  0  0  0  0  0  0  0  0  0  0  0
   -6.2314   -0.1256    1.0556 H   0  0  0  0  0  0  0  0  0  0  0  0
   -8.8621    2.6721   -2.9178 H   0  0  0  0  0  0  0  0  0  0  0  0
  -11.0509    5.9829   -4.0092 H   0  0  0  0  0  0  0  0  0  0  0  0
  -11.7156    6.4425   -1.6449 H   0  0  0  0  0  0  0  0  0  0  0  0
  -10.8842    4.9108    0.1469 H   0  0  0  0  0  0  0  0  0  0  0  0
  1  2  1  0  0  0  0
  1 25  1  0  0  0  0
  1 26  1  0  0  0  0
  1 27  1  0  0  0  0
  2  3  2  0  0  0  0
  2  7  1  0  0  0  0
  3  4  1  0  0  0  0
  3 28  1  0  0  0  0
  4  5  2  0  0  0  0
  4 29  1  0  0  0  0
  5  6  1  0  0  0  0
  5  8  1  0  0  0  0
  6  7  2  0  0  0  0
  6 30  1  0  0  0  0
  7 31  1  0  0  0  0
  8  9  2  0  0  0  0
  8 10  2  0  0  0  0
  8 11  1  0  0  0  0
 11 12  1  0  0  0  0
 11 32  1  0  0  0  0
 12 13  2  0  0  0  0
 12 17  1  0  0  0  0
 13 14  1  0  0  0  0
 13 33  1  0  0  0  0
 14 15  2  0  0  0  0
 15 16  1  0  0  0  0
 15 18  1  0  0  0  0
 16 17  2  0  0  0  0
 16 34  1  0  0  0  0
 17 35  1  0  0  0  0
 18 19  1  0  0  0  0
 19 20  2  0  0  0  0
 19 24  1  0  0  0  0
 20 21  1  0  0  0  0
 20 36  1  0  0  0  0
 21 22  2  0  0  0  0
 22 23  1  0  0  0  0
 22 37  1  0  0  0  0
 23 24  2  0  0  0  0
 23 38  1  0  0  0  0
 24 39  1  0  0  0  0
M  END
