
 OpenBabel10072620213D

 45 46  0  0  0  0  0  0  0  0999 V2000
   -1.3150   -1.6516    3.0544 C   0  0  0  0  0  0  0  0  0  0  0  0
   -1.8489   -1.8116    1.6838 C   0  0  0  0  0  0  0  0  0  0  0  0
   -1.5452   -2.7007    0.6660 C   0  0  0  0  0  0  0  0  0  0  0  0
   -2.3382   -2.4506   -0.4348 N   0  0  0  0  0  0  0  0  0  0  0  0
   -3.0820   -1.4214   -0.1094 C   0  0  0  0  0  0  0  0  0  0  0  0
   -2.8137   -0.9908    1.1565 N   0  0  0  0  0  0  0  0  0  0  0  0
   -0.5686   -3.8243    0.6418 C   0  0  0  0  0  0  0  0  0  0  0  0
    1.1495   -3.2182    0.6170 S   0  0  0  0  0  0  0  0  0  0  0  0
    1.9415   -4.7314   -0.0091 C   0  0  0  0  0  0  0  0  0  0  0  0
    3.4642   -4.6014    0.0301 C   0  0  0  0  0  0  0  0  0  0  0  0
    4.0959   -5.8084   -0.4809 N   0  0  0  0  0  0  0  0  0  0  0  0
    5.2948   -6.3139   -0.0981 C   0  0  0  0  0  0  0  0  0  0  0  0
    5.7843   -7.4792   -0.3198 N   0  0  0  0  0  0  0  0  0  0  0  0
    5.0196   -8.4782   -1.0533 C   0  0  0  0  0  0  0  0  0  0  0  0
    5.4411   -9.8619   -0.5618 C   0  0  0  0  0  0  0  0  0  0  0  0
    4.9568  -10.1180    0.8671 C   0  0  0  0  0  0  0  0  0  0  0  0
    5.3624  -11.4667    1.3408 C   0  0  0  0  0  0  0  0  0  0  0  0
    4.7186  -12.6845    1.3419 C   0  0  0  0  0  0  0  0  0  0  0  0
    5.5113  -13.6553    1.8973 N   0  0  0  0  0  0  0  0  0  0  0  0
    6.6253  -13.0449    2.2301 C   0  0  0  0  0  0  0  0  0  0  0  0
    6.5871  -11.7198    1.9055 N   0  0  0  0  0  0  0  0  0  0  0  0
    6.0671   -5.4536    0.6025 N   0  0  0  0  0  0  0  0  0  0  0  0
   -1.0447   -2.6222    3.4822 H   0  0  0  0  0  0  0  0  0  0  0  0
   -2.0544   -1.1898    3.7166 H   0  0  0  0  0  0  0  0  0  0  0  0
   -0.4209   -1.0204    3.0446 H   0  0  0  0  0  0  0  0  0  0  0  0
   -3.8206   -0.9494   -0.7430 H   0  0  0  0  0  0  0  0  0  0  0  0
   -3.2571   -0.2090    1.6185 H   0  0  0  0  0  0  0  0  0  0  0  0
   -0.7445   -4.4361   -0.2493 H   0  0  0  0  0  0  0  0  0  0  0  0
   -0.7074   -4.4627    1.5204 H   0  0  0  0  0  0  0  0  0  0  0  0
    1.6048   -4.9088   -1.0367 H   0  0  0  0  0  0  0  0  0  0  0  0
    1.6267   -5.5837    0.6029 H   0  0  0  0  0  0  0  0  0  0  0  0
    3.7800   -4.4199    1.0642 H   0  0  0  0  0  0  0  0  0  0  0  0
    3.7931   -3.7531   -0.5806 H   0  0  0  0  0  0  0  0  0  0  0  0
    3.5216   -6.3917   -1.0732 H   0  0  0  0  0  0  0  0  0  0  0  0
    5.2488   -8.3906   -2.1214 H   0  0  0  0  0  0  0  0  0  0  0  0
    3.9364   -8.3772   -0.9277 H   0  0  0  0  0  0  0  0  0  0  0  0
    6.5329   -9.9609   -0.6105 H   0  0  0  0  0  0  0  0  0  0  0  0
    5.0252  -10.6233   -1.2332 H   0  0  0  0  0  0  0  0  0  0  0  0
    3.8643  -10.0303    0.9087 H   0  0  0  0  0  0  0  0  0  0  0  0
    5.3565   -9.3579    1.5494 H   0  0  0  0  0  0  0  0  0  0  0  0
    3.7268  -12.9125    0.9732 H   0  0  0  0  0  0  0  0  0  0  0  0
    7.4837  -13.5038    2.7013 H   0  0  0  0  0  0  0  0  0  0  0  0
    7.3279  -11.0474    2.0514 H   0  0  0  0  0  0  0  0  0  0  0  0
    6.1062   -4.5273    0.2004 H   0  0  0  0  0  0  0  0  0  0  0  0
    7.0006   -5.8373    0.7029 H   0  0  0  0  0  0  0  0  0  0  0  0
  1  2  1  0  0  0  0
  1 23  1  0  0  0  0
  1 24  1  0  0  0  0
  1 25  1  0  0  0  0
  2  3  2  0  0  0  0
  2  6  1  0  0  0  0
  3  4  1  0  0  0  0
  3  7  1  0  0  0  0
  4  5  2  0  0  0  0
  5  6  1  0  0  0  0
  5 26  1  0  0  0  0
  6 27  1  0  0  0  0
  7  8  1  0  0  0  0
  7 28  1  0  0  0  0
  7 29  1  0  0  0  0
  8  9  1  0  0  0  0
  9 10  1  0  0  0  0
  9 30  1  0  0  0  0
  9 31  1  0  0  0  0
 10 11  1  0  0  0  0
 10 32  1  0  0  0  0
 10 33  1  0  0  0  0
 11 12  1  0  0  0  0
 11 34  1  0  0  0  0
 12 13  2  3  0  0  0
 12 22  1  0  0  0  0
 13 14  1  0  0  0  0
 14 15  1  0  0  0  0
 14 35  1  0  0  0  0
 14 36  1  0  0  0  0
 15 16  1  0  0  0  0
 15 37  1  0  0  0  0
 15 38  1  0  0  0  0
 16 17  1  0  0  0  0
 16 39  1  0  0  0  0
 16 40  1  0  0  0  0
 17 18  2  0  0  0  0
 17 21  1  0  0  0  0
 18 19  1  0  0  0  0
 18 41  1  0  0  0  0
 19 20  2  0  0  0  0
 20 21  1  0  0  0  0
 20 42  1  0  0  0  0
 21 43  1  0  0  0  0
 22 44  1  0  0  0  0
 22 45  1  0  0  0  0
M  END
