
 OpenBabel10072620113D

 55 58  0  0  1  0  0  0  0  0999 V2000
    7.3730   -1.3360    0.3818 C   0  0  0  0  0  0  0  0  0  0  0  0
    6.2255   -1.4828    1.0590 C   0  0  0  0  0  0  0  0  0  0  0  0
    4.8637   -1.2999    0.4547 C   0  0  0  0  0  0  0  0  0  0  0  0
    4.1648   -0.1945    1.1411 N   0  0  0  0  0  0  0  0  0  0  0  0
    4.7721    1.1574    1.0222 C   0  0  0  0  0  0  0  0  0  0  0  0
    4.9269    1.7757   -0.3649 C   0  0  0  0  0  0  0  0  0  0  0  0
    4.9445    1.0747   -1.3772 O   0  0  0  0  0  0  0  0  0  0  0  0
    5.2093    3.1386   -0.4346 N   0  0  0  0  0  0  0  0  0  0  0  0
    4.9730    4.1273    0.6342 C   0  0  0  0  0  0  0  0  0  0  0  0
    6.2763    4.7864    1.1031 C   0  0  0  0  0  0  0  0  0  0  0  0
    7.1105    5.1372   -0.0863 C   0  0  0  0  0  0  0  0  0  0  0  0
    6.9106    4.6299   -1.3600 C   0  0  0  0  0  0  0  0  0  0  0  0
    5.7993    3.6473   -1.6862 C   0  0  3  0  0  0  0  0  0  0  0  0
    4.7852    4.3317   -2.5956 C   0  0  0  0  0  0  0  0  0  0  0  0
    4.1504    3.5516   -3.5813 C   0  0  0  0  0  0  0  0  0  0  0  0
    3.2271    4.1132   -4.4673 C   0  0  0  0  0  0  0  0  0  0  0  0
    2.9079    5.4627   -4.3678 C   0  0  0  0  0  0  0  0  0  0  0  0
    3.4836    6.2468   -3.3732 C   0  0  0  0  0  0  0  0  0  0  0  0
    4.4118    5.6846   -2.4905 C   0  0  0  0  0  0  0  0  0  0  0  0
    1.7949    6.1644   -5.4752 Cl  0  0  0  0  0  0  0  0  0  0  0  0
    7.9097    5.1298   -2.2604 C   0  0  0  0  0  0  0  0  0  0  0  0
    8.7899    5.9924   -1.6433 C   0  0  0  0  0  0  0  0  0  0  0  0
    8.4479    6.1773    0.0210 S   0  0  0  0  0  0  0  0  0  0  0  0
    2.4739   -0.2099    0.9926 S   0  0  0  0  0  0  0  0  0  0  0  0
    1.9250    1.0110    1.5492 O   0  0  0  0  0  0  0  0  0  0  0  0
    2.1522   -0.6190   -0.3542 O   0  0  0  0  0  0  0  0  0  0  0  0
    2.0028   -1.5241    2.0880 C   0  0  0  0  0  0  0  0  0  0  0  0
    2.3376   -1.4985    3.4458 C   0  0  0  0  0  0  0  0  0  0  0  0
    1.9619   -2.5712    4.2650 C   0  0  0  0  0  0  0  0  0  0  0  0
    1.2540   -3.6534    3.7365 C   0  0  0  0  0  0  0  0  0  0  0  0
    0.9114   -3.6626    2.3866 C   0  0  0  0  0  0  0  0  0  0  0  0
    1.2792   -2.6045    1.5581 C   0  0  0  0  0  0  0  0  0  0  0  0
    0.0306   -4.9918    1.7401 Cl  0  0  0  0  0  0  0  0  0  0  0  0
    3.1981   -0.2151    4.2150 Cl  0  0  0  0  0  0  0  0  0  0  0  0
    8.3326   -1.5070    0.8610 H   0  0  0  0  0  0  0  0  0  0  0  0
    7.3794   -1.0410   -0.6647 H   0  0  0  0  0  0  0  0  0  0  0  0
    6.2621   -1.7864    2.1026 H   0  0  0  0  0  0  0  0  0  0  0  0
    4.3234   -2.2427    0.6076 H   0  0  0  0  0  0  0  0  0  0  0  0
    4.9172   -1.1419   -0.6250 H   0  0  0  0  0  0  0  0  0  0  0  0
    5.7702    1.1343    1.4769 H   0  0  0  0  0  0  0  0  0  0  0  0
    4.1899    1.8142    1.6674 H   0  0  0  0  0  0  0  0  0  0  0  0
    4.4520    3.7053    1.4920 H   0  0  0  0  0  0  0  0  0  0  0  0
    4.2911    4.8823    0.2282 H   0  0  0  0  0  0  0  0  0  0  0  0
    6.8323    4.0831    1.7341 H   0  0  0  0  0  0  0  0  0  0  0  0
    6.0464    5.6732    1.7037 H   0  0  0  0  0  0  0  0  0  0  0  0
    6.2674    2.8185   -2.2342 H   0  0  0  0  0  0  0  0  0  0  0  0
    4.3762    2.4880   -3.6637 H   0  0  0  0  0  0  0  0  0  0  0  0
    2.7648    3.4892   -5.2270 H   0  0  0  0  0  0  0  0  0  0  0  0
    3.2202    7.2969   -3.2814 H   0  0  0  0  0  0  0  0  0  0  0  0
    4.8453    6.3270   -1.7272 H   0  0  0  0  0  0  0  0  0  0  0  0
    7.9756    4.8724   -3.3107 H   0  0  0  0  0  0  0  0  0  0  0  0
    9.6231    6.5213   -2.0854 H   0  0  0  0  0  0  0  0  0  0  0  0
    2.2247   -2.5753    5.3220 H   0  0  0  0  0  0  0  0  0  0  0  0
    0.9703   -4.4804    4.3835 H   0  0  0  0  0  0  0  0  0  0  0  0
    1.0066   -2.6278    0.5048 H   0  0  0  0  0  0  0  0  0  0  0  0
  1  2  2  0  0  0  0
  1 35  1  0  0  0  0
  1 36  1  0  0  0  0
  2  3  1  0  0  0  0
  2 37  1  0  0  0  0
  3  4  1  0  0  0  0
  3 38  1  0  0  0  0
  3 39  1  0  0  0  0
  4  5  1  0  0  0  0
  4 24  1  0  0  0  0
  5  6  1  0  0  0  0
  5 40  1  0  0  0  0
  5 41  1  0  0  0  0
  6  7  2  0  0  0  0
  6  8  1  0  0  0  0
  8  9  1  0  0  0  0
  8 13  1  0  0  0  0
  9 10  1  0  0  0  0
  9 42  1  0  0  0  0
  9 43  1  0  0  0  0
 10 11  1  0  0  0  0
 10 44  1  0  0  0  0
 10 45  1  0  0  0  0
 11 12  2  0  0  0  0
 11 23  1  0  0  0  0
 12 13  1  0  0  0  0
 12 21  1  0  0  0  0
 13 14  1  0  0  0  0
 13 46  1  0  0  0  0
 14 15  2  0  0  0  0
 14 19  1  0  0  0  0
 15 16  1  0  0  0  0
 15 47  1  0  0  0  0
 16 17  2  0  0  0  0
 16 48  1  0  0  0  0
 17 18  1  0  0  0  0
 17 20  1  0  0  0  0
 18 19  2  0  0  0  0
 18 49  1  0  0  0  0
 19 50  1  0  0  0  0
 21 22  2  0  0  0  0
 21 51  1  0  0  0  0
 22 23  1  0  0  0  0
 22 52  1  0  0  0  0
 24 25  2  0  0  0  0
 24 26  2  0  0  0  0
 24 27  1  0  0  0  0
 27 28  2  0  0  0  0
 27 32  1  0  0  0  0
 28 29  1  0  0  0  0
 28 34  1  0  0  0  0
 29 30  2  0  0  0  0
 29 53  1  0  0  0  0
 30 31  1  0  0  0  0
 30 54  1  0  0  0  0
 31 32  2  0  0  0  0
 31 33  1  0  0  0  0
 32 55  1  0  0  0  0
M  END
