
 OpenBabel10072619573D

 85 86  0  0  0  0  0  0  0  0999 V2000
    0.7457    0.2796    0.4025 C   0  0  0  0  0  0  0  0  0  0  0  0
    2.2660    0.2872    0.3637 C   0  0  0  0  0  0  0  0  0  0  0  0
    2.7951    1.2289   -0.7185 C   0  0  0  0  0  0  0  0  0  0  0  0
    4.3250    1.2351   -0.7551 C   0  0  0  0  0  0  0  0  0  0  0  0
    4.8537    2.1776   -1.8395 C   0  0  0  0  0  0  0  0  0  0  0  0
    6.3840    2.1816   -1.8807 C   0  0  0  0  0  0  0  0  0  0  0  0
    6.9171    3.1166   -2.9702 C   0  0  0  0  0  0  0  0  0  0  0  0
    8.4483    3.1074   -3.0158 C   0  0  0  0  0  0  0  0  0  0  0  0
    8.9869    4.0388   -4.1062 C   0  0  0  0  0  0  0  0  0  0  0  0
   10.5182    4.0295   -4.1490 C   0  0  0  0  0  0  0  0  0  0  0  0
   11.0590    4.9801   -5.2214 C   0  0  0  0  0  0  0  0  0  0  0  0
   12.5903    4.9906   -5.2399 C   0  0  0  0  0  0  0  0  0  0  0  0
   13.1346    5.9579   -6.2934 C   0  0  0  0  0  0  0  0  0  0  0  0
   14.6658    5.9934   -6.2875 C   0  0  0  0  0  0  0  0  0  0  0  0
   15.2022    6.9816   -7.3274 C   0  0  0  0  0  0  0  0  0  0  0  0
   16.7307    7.0717   -7.2829 C   0  0  0  0  0  0  0  0  0  0  0  0
   17.3237    7.9688   -8.3751 C   0  0  0  0  0  0  0  0  0  0  0  0
   16.8841    9.4284   -8.2729 C   0  0  0  0  0  0  0  0  0  0  0  0
   17.5463   10.2037   -9.3292 N   0  0  0  0  0  0  0  0  0  0  0  0
   17.3401   11.8777   -9.3124 S   0  0  0  0  0  0  0  0  0  0  0  0
   17.6722   12.3465  -10.6395 O   0  0  0  0  0  0  0  0  0  0  0  0
   16.0360   12.1387   -8.7393 O   0  0  0  0  0  0  0  0  0  0  0  0
   18.6004   12.4421   -8.1826 C   0  0  0  0  0  0  0  0  0  0  0  0
   18.1440   13.0646   -7.0106 C   0  0  0  0  0  0  0  0  0  0  0  0
   19.0512   13.5759   -6.0980 C   0  0  0  0  0  0  0  0  0  0  0  0
   20.4141   13.4697   -6.3564 C   0  0  0  0  0  0  0  0  0  0  0  0
   20.9190   12.8431   -7.5173 C   0  0  0  0  0  0  0  0  0  0  0  0
   19.9936   12.3136   -8.4642 C   0  0  0  0  0  0  0  0  0  0  0  0
   20.5326   11.6973   -9.6198 C   0  0  0  0  0  0  0  0  0  0  0  0
   21.9057   11.6078   -9.8421 C   0  0  0  0  0  0  0  0  0  0  0  0
   22.7941   12.1296   -8.9123 C   0  0  0  0  0  0  0  0  0  0  0  0
   22.3267   12.7551   -7.7478 C   0  0  0  0  0  0  0  0  0  0  0  0
   23.2340   13.2743   -6.7826 N   0  0  0  0  0  0  0  0  0  0  0  0
   24.3092   14.0994   -7.3361 C   0  0  0  0  0  0  0  0  0  0  0  0
   23.6898   12.2213   -5.8711 C   0  0  0  0  0  0  0  0  0  0  0  0
    0.3898   -0.3999    1.1835 H   0  0  0  0  0  0  0  0  0  0  0  0
    0.3302   -0.0547   -0.5536 H   0  0  0  0  0  0  0  0  0  0  0  0
    0.3535    1.2789    0.6174 H   0  0  0  0  0  0  0  0  0  0  0  0
    2.6254   -0.7319    0.1792 H   0  0  0  0  0  0  0  0  0  0  0  0
    2.6486    0.5938    1.3442 H   0  0  0  0  0  0  0  0  0  0  0  0
    2.4280    2.2454   -0.5315 H   0  0  0  0  0  0  0  0  0  0  0  0
    2.4054    0.9194   -1.6960 H   0  0  0  0  0  0  0  0  0  0  0  0
    4.6911    0.2180   -0.9415 H   0  0  0  0  0  0  0  0  0  0  0  0
    4.7141    1.5445    0.2226 H   0  0  0  0  0  0  0  0  0  0  0  0
    4.4884    3.1945   -1.6510 H   0  0  0  0  0  0  0  0  0  0  0  0
    4.4611    1.8686   -2.8159 H   0  0  0  0  0  0  0  0  0  0  0  0
    6.7472    1.1630   -2.0631 H   0  0  0  0  0  0  0  0  0  0  0  0
    6.7755    2.4944   -0.9050 H   0  0  0  0  0  0  0  0  0  0  0  0
    6.5610    4.1371   -2.7835 H   0  0  0  0  0  0  0  0  0  0  0  0
    6.5191    2.8087   -3.9448 H   0  0  0  0  0  0  0  0  0  0  0  0
    8.8031    2.0856   -3.1980 H   0  0  0  0  0  0  0  0  0  0  0  0
    8.8438    3.4180   -2.0411 H   0  0  0  0  0  0  0  0  0  0  0  0
    8.6317    5.0600   -3.9219 H   0  0  0  0  0  0  0  0  0  0  0  0
    8.5919    3.7296   -5.0814 H   0  0  0  0  0  0  0  0  0  0  0  0
   10.8732    3.0114   -4.3502 H   0  0  0  0  0  0  0  0  0  0  0  0
   10.9135    4.3216   -3.1685 H   0  0  0  0  0  0  0  0  0  0  0  0
   10.6890    5.9949   -5.0314 H   0  0  0  0  0  0  0  0  0  0  0  0
   10.6807    4.6775   -6.2053 H   0  0  0  0  0  0  0  0  0  0  0  0
   12.9630    3.9797   -5.4429 H   0  0  0  0  0  0  0  0  0  0  0  0
   12.9648    5.2798   -4.2507 H   0  0  0  0  0  0  0  0  0  0  0  0
   12.7467    6.9650   -6.0983 H   0  0  0  0  0  0  0  0  0  0  0  0
   12.7769    5.6595   -7.2864 H   0  0  0  0  0  0  0  0  0  0  0  0
   15.0584    4.9910   -6.4961 H   0  0  0  0  0  0  0  0  0  0  0  0
   15.0234    6.2801   -5.2907 H   0  0  0  0  0  0  0  0  0  0  0  0
   14.7656    7.9680   -7.1365 H   0  0  0  0  0  0  0  0  0  0  0  0
   14.8793    6.6726   -8.3289 H   0  0  0  0  0  0  0  0  0  0  0  0
   17.1525    6.0659   -7.4032 H   0  0  0  0  0  0  0  0  0  0  0  0
   17.0496    7.4359   -6.2984 H   0  0  0  0  0  0  0  0  0  0  0  0
   17.0561    7.5681   -9.3611 H   0  0  0  0  0  0  0  0  0  0  0  0
   18.4184    7.9187   -8.3116 H   0  0  0  0  0  0  0  0  0  0  0  0
   17.1492    9.8294   -7.2895 H   0  0  0  0  0  0  0  0  0  0  0  0
   15.8016    9.5016   -8.4119 H   0  0  0  0  0  0  0  0  0  0  0  0
   17.5010    9.8409  -10.2812 H   0  0  0  0  0  0  0  0  0  0  0  0
   17.0806   13.1680   -6.8069 H   0  0  0  0  0  0  0  0  0  0  0  0
   18.7046   14.0704   -5.1947 H   0  0  0  0  0  0  0  0  0  0  0  0
   21.1062   13.9021   -5.6347 H   0  0  0  0  0  0  0  0  0  0  0  0
   19.8882   11.2723  -10.3851 H   0  0  0  0  0  0  0  0  0  0  0  0
   22.2789   11.1286  -10.7436 H   0  0  0  0  0  0  0  0  0  0  0  0
   23.8588   12.0296   -9.0991 H   0  0  0  0  0  0  0  0  0  0  0  0
   23.9209   14.8213   -8.0631 H   0  0  0  0  0  0  0  0  0  0  0  0
   25.0931   13.4974   -7.8092 H   0  0  0  0  0  0  0  0  0  0  0  0
   24.7772   14.6763   -6.5307 H   0  0  0  0  0  0  0  0  0  0  0  0
   22.8469   11.6856   -5.4204 H   0  0  0  0  0  0  0  0  0  0  0  0
   24.2622   12.6675   -5.0506 H   0  0  0  0  0  0  0  0  0  0  0  0
   24.3346   11.4965   -6.3808 H   0  0  0  0  0  0  0  0  0  0  0  0
  1  2  1  0  0  0  0
  1 36  1  0  0  0  0
  1 37  1  0  0  0  0
  1 38  1  0  0  0  0
  2  3  1  0  0  0  0
  2 39  1  0  0  0  0
  2 40  1  0  0  0  0
  3  4  1  0  0  0  0
  3 41  1  0  0  0  0
  3 42  1  0  0  0  0
  4  5  1  0  0  0  0
  4 43  1  0  0  0  0
  4 44  1  0  0  0  0
  5  6  1  0  0  0  0
  5 45  1  0  0  0  0
  5 46  1  0  0  0  0
  6  7  1  0  0  0  0
  6 47  1  0  0  0  0
  6 48  1  0  0  0  0
  7  8  1  0  0  0  0
  7 49  1  0  0  0  0
  7 50  1  0  0  0  0
  8  9  1  0  0  0  0
  8 51  1  0  0  0  0
  8 52  1  0  0  0  0
  9 10  1  0  0  0  0
  9 53  1  0  0  0  0
  9 54  1  0  0  0  0
 10 11  1  0  0  0  0
 10 55  1  0  0  0  0
 10 56  1  0  0  0  0
 11 12  1  0  0  0  0
 11 57  1  0  0  0  0
 11 58  1  0  0  0  0
 12 13  1  0  0  0  0
 12 59  1  0  0  0  0
 12 60  1  0  0  0  0
 13 14  1  0  0  0  0
 13 61  1  0  0  0  0
 13 62  1  0  0  0  0
 14 15  1  0  0  0  0
 14 63  1  0  0  0  0
 14 64  1  0  0  0  0
 15 16  1  0  0  0  0
 15 65  1  0  0  0  0
 15 66  1  0  0  0  0
 16 17  1  0  0  0  0
 16 67  1  0  0  0  0
 16 68  1  0  0  0  0
 17 18  1  0  0  0  0
 17 69  1  0  0  0  0
 17 70  1  0  0  0  0
 18 19  1  0  0  0  0
 18 71  1  0  0  0  0
 18 72  1  0  0  0  0
 19 20  1  0  0  0  0
 19 73  1  0  0  0  0
 20 21  2  0  0  0  0
 20 22  2  0  0  0  0
 20 23  1  0  0  0  0
 23 24  2  0  0  0  0
 23 28  1  0  0  0  0
 24 25  1  0  0  0  0
 24 74  1  0  0  0  0
 25 26  2  0  0  0  0
 25 75  1  0  0  0  0
 26 27  1  0  0  0  0
 26 76  1  0  0  0  0
 27 28  2  0  0  0  0
 27 32  1  0  0  0  0
 28 29  1  0  0  0  0
 29 30  2  0  0  0  0
 29 77  1  0  0  0  0
 30 31  1  0  0  0  0
 30 78  1  0  0  0  0
 31 32  2  0  0  0  0
 31 79  1  0  0  0  0
 32 33  1  0  0  0  0
 33 34  1  0  0  0  0
 33 35  1  0  0  0  0
 34 80  1  0  0  0  0
 34 81  1  0  0  0  0
 34 82  1  0  0  0  0
 35 83  1  0  0  0  0
 35 84  1  0  0  0  0
 35 85  1  0  0  0  0
M  END
