
 OpenBabel10072619553D

223225  0  0  1  0  0  0  0  0999 V2000
    1.4222   -1.5139   -0.1894 C   0  0  0  0  0  0  0  0  0  0  0  0
    1.4349   -1.7330    1.6982 C   0  0  0  0  0  0  0  0  0  0  0  0
    0.4608   -2.2540    3.4493 C   0  0  3  0  0  0  0  0  0  0  0  0
   -1.4009   -2.4117    4.7263 C   0  0  0  0  0  0  0  0  0  0  0  0
   -2.3438   -3.0887    4.2207 O   0  0  0  0  0  0  0  0  0  0  0  0
   -2.5186   -1.7823    6.2061 N   0  0  0  0  0  0  0  0  0  0  0  0
   -2.7474   -0.4458    7.6299 C   0  0  0  0  0  0  0  0  0  0  0  0
   -3.5128    0.4764    9.0701 C   0  0  0  0  0  0  0  0  0  0  0  0
   -4.6924    0.2439    9.3997 O   0  0  0  0  0  0  0  0  0  0  0  0
   -2.8349    1.5341    9.7712 N   0  0  0  0  0  0  0  0  0  0  0  0
   -2.2968    2.8635    9.1572 C   0  0  3  0  0  0  0  0  0  0  0  0
   -1.0733    3.4865    9.8906 C   0  0  0  0  0  0  0  0  0  0  0  0
   -0.8773    3.4374   11.0995 O   0  0  0  0  0  0  0  0  0  0  0  0
   -0.1834    4.1490    9.0543 N   0  0  0  0  0  0  0  0  0  0  0  0
    0.8529    3.3946    8.2498 C   0  0  3  0  0  0  0  0  0  0  0  0
    1.8374    4.5035    7.7438 C   0  0  0  0  0  0  0  0  0  0  0  0
    1.8995    5.5764    8.3552 O   0  0  0  0  0  0  0  0  0  0  0  0
    2.7349    4.2041    6.7240 N   0  0  0  0  0  0  0  0  0  0  0  0
    2.3341    3.9578    5.3179 C   0  0  3  0  0  0  0  0  0  0  0  0
    3.4147    3.3521    4.2870 C   0  0  0  0  0  0  0  0  0  0  0  0
    4.6118    3.2915    4.5806 O   0  0  0  0  0  0  0  0  0  0  0  0
    3.0659    3.0412    2.9693 N   0  0  0  0  0  0  0  0  0  0  0  0
    2.0941    1.9726    2.5994 C   0  0  3  0  0  0  0  0  0  0  0  0
    1.7529    1.7141    1.0575 C   0  0  0  0  0  0  0  0  0  0  0  0
    2.5310    2.2038    0.2183 O   0  0  0  0  0  0  0  0  0  0  0  0
    0.8654    0.7162    0.6130 N   0  0  0  0  0  0  0  0  0  0  0  0
   -0.3877   -0.0751    1.0659 C   0  0  3  0  0  0  0  0  0  0  0  0
   -0.2469   -0.1411    2.5414 C   0  0  0  0  0  0  0  0  0  0  0  0
    0.8180    0.0162    3.1534 O   0  0  0  0  0  0  0  0  0  0  0  0
   -1.3266   -0.4727    3.2164 N   0  0  0  0  0  0  0  0  0  0  0  0
   -1.4107   -0.1908    4.7061 C   0  0  3  0  0  0  0  0  0  0  0  0
   -0.0887   -1.0785    5.8134 C   0  0  0  0  0  0  0  0  0  0  0  0
    1.0183   -1.1817    5.3301 O   0  0  0  0  0  0  0  0  0  0  0  0
   -0.1860   -1.8576    7.0274 N   0  0  0  0  0  0  0  0  0  0  0  0
    0.5772   -3.0477    7.4182 C   0  0  3  0  0  0  0  0  0  0  0  0
    2.0747   -2.7333    7.4820 C   0  0  0  0  0  0  0  0  0  0  0  0
    2.5275   -1.6054    7.2799 O   0  0  0  0  0  0  0  0  0  0  0  0
    2.9272   -3.7380    7.9181 N   0  0  0  0  0  0  0  0  0  0  0  0
    4.3551   -3.5417    7.5415 C   0  0  3  0  0  0  0  0  0  0  0  0
    4.3368   -3.6468    6.0191 C   0  0  0  0  0  0  0  0  0  0  0  0
    3.2938   -3.7450    5.3884 O   0  0  0  0  0  0  0  0  0  0  0  0
    5.5673   -3.5347    5.4492 O   0  0  0  0  0  0  0  0  0  0  0  0
    5.6948   -3.3647    4.0008 C   0  0  3  0  0  0  0  0  0  0  0  0
    4.9134   -2.0915    3.6445 C   0  0  3  0  0  0  0  0  0  0  0  0
    3.8091   -2.2046    2.6741 C   0  0  0  0  0  0  0  0  0  0  0  0
    4.1113   -2.2892    1.4752 O   0  0  0  0  0  0  0  0  0  0  0  0
    2.3824   -1.9416    3.4727 N   0  0  0  0  0  0  0  0  0  0  0  0
    5.5892   -0.7803    3.9384 N   0  0  0  0  0  0  0  0  0  0  0  0
    5.4427   -0.5504    5.4074 C   0  0  0  0  0  0  0  0  0  0  0  0
    7.2021   -0.4702    3.4232 S   0  0  0  0  0  0  0  0  0  0  0  0
    7.7530    0.4828    4.3639 O   0  0  0  0  0  0  0  0  0  0  0  0
    7.8921   -1.7179    3.1784 O   0  0  0  0  0  0  0  0  0  0  0  0
    7.1758    0.3589    1.8576 C   0  0  0  0  0  0  0  0  0  0  0  0
    5.9490    0.6356    1.2638 C   0  0  0  0  0  0  0  0  0  0  0  0
    5.9293    1.2760    0.0457 C   0  0  0  0  0  0  0  0  0  0  0  0
    7.1276    1.6408   -0.5565 C   0  0  0  0  0  0  0  0  0  0  0  0
    8.4097    1.3667   -0.0226 C   0  0  0  0  0  0  0  0  0  0  0  0
    8.4251    0.7221    1.2475 C   0  0  0  0  0  0  0  0  0  0  0  0
    9.6854    0.4942    1.8534 C   0  0  0  0  0  0  0  0  0  0  0  0
   10.8764    0.8732    1.2579 C   0  0  0  0  0  0  0  0  0  0  0  0
   10.8498    1.4868    0.0176 C   0  0  0  0  0  0  0  0  0  0  0  0
    9.6442    1.7576   -0.6631 C   0  0  0  0  0  0  0  0  0  0  0  0
    9.7238    2.3951   -1.9051 N   0  0  0  0  0  0  0  0  0  0  0  0
   10.7032    3.4508   -2.1366 C   0  0  0  0  0  0  0  0  0  0  0  0
    8.8197    2.1345   -3.0126 C   0  0  0  0  0  0  0  0  0  0  0  0
    5.4308   -4.7008    3.2814 C   0  0  3  0  0  0  0  0  0  0  0  0
    4.0357   -5.2543    3.5294 C   0  0  0  0  0  0  0  0  0  0  0  0
    5.7646   -4.6766    1.7815 C   0  0  0  0  0  0  0  0  0  0  0  0
    5.4993   -6.0279    1.1828 C   0  0  0  0  0  0  0  0  0  0  0  0
    6.4003   -7.0148    1.1376 C   0  0  0  0  0  0  0  0  0  0  0  0
    7.8070   -6.8703    1.6111 C   0  0  0  0  0  0  0  0  0  0  0  0
    5.3268   -4.5539    8.1460 C   0  0  0  0  0  0  0  0  0  0  0  0
    6.7845   -4.2987    7.7531 C   0  0  0  0  0  0  0  0  0  0  0  0
    5.3068   -4.4838    9.6675 C   0  0  0  0  0  0  0  0  0  0  0  0
    2.4635   -4.9485    8.5676 C   0  0  0  0  0  0  0  0  0  0  0  0
   -0.0080   -4.3382    6.8207 C   0  0  0  0  0  0  0  0  0  0  0  0
   -1.4671   -4.6785    7.2605 C   0  0  0  0  0  0  0  0  0  0  0  0
   -1.8788   -6.0219    6.6703 C   0  0  0  0  0  0  0  0  0  0  0  0
   -1.7208   -4.7340    8.7709 C   0  0  0  0  0  0  0  0  0  0  0  0
   -0.6601   -1.3274    8.2197 C   0  0  0  0  0  0  0  0  0  0  0  0
   -2.9903   -0.2228    4.7593 C   0  0  0  0  0  0  0  0  0  0  0  0
   -4.0845    0.7243    4.3827 C   0  0  0  0  0  0  0  0  0  0  0  0
   -3.5679    2.0969    4.6339 C   0  0  0  0  0  0  0  0  0  0  0  0
   -4.8036    0.5226    3.0640 C   0  0  0  0  0  0  0  0  0  0  0  0
   -2.4210   -0.9786    2.4156 C   0  0  0  0  0  0  0  0  0  0  0  0
   -0.7533   -1.7723    0.5697 C   0  0  0  0  0  0  0  0  0  0  0  0
    0.7783    2.3563    3.1846 C   0  0  0  0  0  0  0  0  0  0  0  0
    1.4475    4.9877    4.6550 C   0  0  0  0  0  0  0  0  0  0  0  0
    2.2322    6.1216    4.0869 C   0  0  0  0  0  0  0  0  0  0  0  0
    1.3136    6.8897    3.1682 C   0  0  0  0  0  0  0  0  0  0  0  0
    2.7422    6.9509    5.2235 C   0  0  0  0  0  0  0  0  0  0  0  0
    4.1405    4.3208    7.0293 C   0  0  0  0  0  0  0  0  0  0  0  0
    0.2471    2.5390    7.1534 C   0  0  0  0  0  0  0  0  0  0  0  0
    1.1902    1.5575    6.3656 C   0  0  0  0  0  0  0  0  0  0  0  0
   -0.6428    1.4590    7.6730 C   0  0  0  0  0  0  0  0  0  0  0  0
   -3.3903    3.6075    8.4550 C   0  0  0  0  0  0  0  0  0  0  0  0
   -4.2490    4.4569    9.3311 C   0  0  0  0  0  0  0  0  0  0  0  0
   -3.4174    5.5210   10.0087 C   0  0  0  0  0  0  0  0  0  0  0  0
   -5.2922    5.0900    8.4334 C   0  0  0  0  0  0  0  0  0  0  0  0
   -2.9910    1.6037   11.2432 C   0  0  0  0  0  0  0  0  0  0  0  0
   -4.3907   -1.8660    6.7550 C   0  0  0  0  0  0  0  0  0  0  0  0
    2.2287   -0.8609   -0.5703 H   0  0  0  0  0  0  0  0  0  0  0  0
    0.6168   -0.9144   -0.6355 H   0  0  0  0  0  0  0  0  0  0  0  0
    1.4548   -2.4305   -0.7385 H   0  0  0  0  0  0  0  0  0  0  0  0
    2.2616   -0.8812    1.7522 H   0  0  0  0  0  0  0  0  0  0  0  0
    2.1218   -2.5351    1.3238 H   0  0  0  0  0  0  0  0  0  0  0  0
    0.6220   -3.2855    3.1053 H   0  0  0  0  0  0  0  0  0  0  0  0
   -3.5129    0.1842    7.1889 H   0  0  0  0  0  0  0  0  0  0  0  0
   -3.0331   -1.2585    8.3168 H   0  0  0  0  0  0  0  0  0  0  0  0
   -1.8206    2.8430    8.1853 H   0  0  0  0  0  0  0  0  0  0  0  0
    0.3229    4.8350    9.6015 H   0  0  0  0  0  0  0  0  0  0  0  0
    1.3971    2.7476    8.9440 H   0  0  0  0  0  0  0  0  0  0  0  0
    1.4970    3.3550    5.5248 H   0  0  0  0  0  0  0  0  0  0  0  0
    3.9097    2.9698    2.4105 H   0  0  0  0  0  0  0  0  0  0  0  0
    2.5889    1.1010    3.0460 H   0  0  0  0  0  0  0  0  0  0  0  0
    1.4662    0.0038    0.8428 H   0  0  0  0  0  0  0  0  0  0  0  0
   -1.1878    0.5639    0.7125 H   0  0  0  0  0  0  0  0  0  0  0  0
   -1.1232    0.8293    4.8301 H   0  0  0  0  0  0  0  0  0  0  0  0
    0.4000   -3.1712    8.5054 H   0  0  0  0  0  0  0  0  0  0  0  0
    4.6394   -2.5130    7.7988 H   0  0  0  0  0  0  0  0  0  0  0  0
    6.7610   -3.2180    3.8768 H   0  0  0  0  0  0  0  0  0  0  0  0
    4.2055   -2.0605    4.4405 H   0  0  0  0  0  0  0  0  0  0  0  0
    2.5296   -0.9129    3.3851 H   0  0  0  0  0  0  0  0  0  0  0  0
    4.4071   -0.7041    5.7282 H   0  0  0  0  0  0  0  0  0  0  0  0
    5.7008    0.4606    5.6969 H   0  0  0  0  0  0  0  0  0  0  0  0
    6.0684   -1.2850    5.9179 H   0  0  0  0  0  0  0  0  0  0  0  0
    5.0124    0.3708    1.7336 H   0  0  0  0  0  0  0  0  0  0  0  0
    4.9922    1.5092   -0.4513 H   0  0  0  0  0  0  0  0  0  0  0  0
    7.0085    2.1800   -1.4802 H   0  0  0  0  0  0  0  0  0  0  0  0
    9.7745    0.0174    2.8260 H   0  0  0  0  0  0  0  0  0  0  0  0
   11.8196    0.6866    1.7621 H   0  0  0  0  0  0  0  0  0  0  0  0
   11.8061    1.7383   -0.4312 H   0  0  0  0  0  0  0  0  0  0  0  0
   11.3479    3.6578   -1.2791 H   0  0  0  0  0  0  0  0  0  0  0  0
   10.1904    4.3884   -2.3752 H   0  0  0  0  0  0  0  0  0  0  0  0
   11.3418    3.1845   -2.9848 H   0  0  0  0  0  0  0  0  0  0  0  0
    8.1875    1.2653   -2.8614 H   0  0  0  0  0  0  0  0  0  0  0  0
    9.3815    1.9250   -3.9243 H   0  0  0  0  0  0  0  0  0  0  0  0
    8.1808    3.0045   -3.1969 H   0  0  0  0  0  0  0  0  0  0  0  0
    6.1187   -5.4187    3.7549 H   0  0  0  0  0  0  0  0  0  0  0  0
    3.2728   -4.5448    3.2047 H   0  0  0  0  0  0  0  0  0  0  0  0
    3.9211   -5.5043    4.5829 H   0  0  0  0  0  0  0  0  0  0  0  0
    3.8332   -6.1964    3.0364 H   0  0  0  0  0  0  0  0  0  0  0  0
    6.7942   -4.3483    1.6156 H   0  0  0  0  0  0  0  0  0  0  0  0
    5.1814   -3.9711    1.2085 H   0  0  0  0  0  0  0  0  0  0  0  0
    4.4801   -6.2160    0.8459 H   0  0  0  0  0  0  0  0  0  0  0  0
    6.0937   -7.9832    0.7524 H   0  0  0  0  0  0  0  0  0  0  0  0
    8.0178   -5.8849    2.0332 H   0  0  0  0  0  0  0  0  0  0  0  0
    8.4872   -7.0189    0.7714 H   0  0  0  0  0  0  0  0  0  0  0  0
    8.0177   -7.6015    2.3930 H   0  0  0  0  0  0  0  0  0  0  0  0
    5.0491   -5.5549    7.7945 H   0  0  0  0  0  0  0  0  0  0  0  0
    7.0820   -3.2810    8.0252 H   0  0  0  0  0  0  0  0  0  0  0  0
    6.9896   -4.4473    6.6950 H   0  0  0  0  0  0  0  0  0  0  0  0
    7.4343   -5.0086    8.2665 H   0  0  0  0  0  0  0  0  0  0  0  0
    5.5724   -3.4818   10.0092 H   0  0  0  0  0  0  0  0  0  0  0  0
    5.9892   -5.2223   10.0830 H   0  0  0  0  0  0  0  0  0  0  0  0
    4.3606   -4.7032   10.1271 H   0  0  0  0  0  0  0  0  0  0  0  0
    1.3919   -4.9912    8.7023 H   0  0  0  0  0  0  0  0  0  0  0  0
    2.7606   -4.9380    9.6018 H   0  0  0  0  0  0  0  0  0  0  0  0
    2.8155   -5.8303    8.0351 H   0  0  0  0  0  0  0  0  0  0  0  0
    0.5891   -5.2135    7.0651 H   0  0  0  0  0  0  0  0  0  0  0  0
    0.0558   -4.2839    5.7346 H   0  0  0  0  0  0  0  0  0  0  0  0
   -2.1481   -3.9417    6.8451 H   0  0  0  0  0  0  0  0  0  0  0  0
   -1.2869   -6.8326    7.1060 H   0  0  0  0  0  0  0  0  0  0  0  0
   -1.7364   -6.0298    5.5887 H   0  0  0  0  0  0  0  0  0  0  0  0
   -2.9351   -6.2282    6.8699 H   0  0  0  0  0  0  0  0  0  0  0  0
   -1.1246   -5.5149    9.2473 H   0  0  0  0  0  0  0  0  0  0  0  0
   -2.7794   -4.9410    8.9712 H   0  0  0  0  0  0  0  0  0  0  0  0
   -1.4976   -3.8010    9.2826 H   0  0  0  0  0  0  0  0  0  0  0  0
   -0.9874   -0.4732    7.7561 H   0  0  0  0  0  0  0  0  0  0  0  0
    0.0158   -0.9911    8.9913 H   0  0  0  0  0  0  0  0  0  0  0  0
   -1.4279   -1.9722    8.6311 H   0  0  0  0  0  0  0  0  0  0  0  0
   -3.0564    0.0167    5.7548 H   0  0  0  0  0  0  0  0  0  0  0  0
   -3.4254   -1.2331    4.6025 H   0  0  0  0  0  0  0  0  0  0  0  0
   -4.8565    0.4944    5.1205 H   0  0  0  0  0  0  0  0  0  0  0  0
   -2.7821    2.3365    3.9015 H   0  0  0  0  0  0  0  0  0  0  0  0
   -3.1506    2.1527    5.6548 H   0  0  0  0  0  0  0  0  0  0  0  0
   -4.3814    2.8035    4.5600 H   0  0  0  0  0  0  0  0  0  0  0  0
   -4.2332    0.9724    2.2368 H   0  0  0  0  0  0  0  0  0  0  0  0
   -5.7782    0.9791    3.0572 H   0  0  0  0  0  0  0  0  0  0  0  0
   -4.9678   -0.5564    2.8797 H   0  0  0  0  0  0  0  0  0  0  0  0
   -2.3912   -0.7793    1.3599 H   0  0  0  0  0  0  0  0  0  0  0  0
   -3.1940   -0.3392    2.5118 H   0  0  0  0  0  0  0  0  0  0  0  0
   -2.7178   -1.9974    2.5789 H   0  0  0  0  0  0  0  0  0  0  0  0
   -0.0933   -2.5799    0.9222 H   0  0  0  0  0  0  0  0  0  0  0  0
   -0.8720   -1.8940   -0.5040 H   0  0  0  0  0  0  0  0  0  0  0  0
   -1.6006   -2.2752    0.9942 H   0  0  0  0  0  0  0  0  0  0  0  0
    0.4231    3.2136    2.6553 H   0  0  0  0  0  0  0  0  0  0  0  0
    0.8850    2.4784    4.2234 H   0  0  0  0  0  0  0  0  0  0  0  0
   -0.0918    1.7431    3.1715 H   0  0  0  0  0  0  0  0  0  0  0  0
    0.6230    5.2891    5.3125 H   0  0  0  0  0  0  0  0  0  0  0  0
    0.9393    4.5412    3.8122 H   0  0  0  0  0  0  0  0  0  0  0  0
    3.0668    5.7281    3.4996 H   0  0  0  0  0  0  0  0  0  0  0  0
    0.4128    7.2137    3.6972 H   0  0  0  0  0  0  0  0  0  0  0  0
    1.0016    6.2392    2.3478 H   0  0  0  0  0  0  0  0  0  0  0  0
    1.8252    7.7456    2.7375 H   0  0  0  0  0  0  0  0  0  0  0  0
    1.9148    7.2559    5.8677 H   0  0  0  0  0  0  0  0  0  0  0  0
    3.2880    7.8099    4.8526 H   0  0  0  0  0  0  0  0  0  0  0  0
    3.4310    6.3783    5.8321 H   0  0  0  0  0  0  0  0  0  0  0  0
    4.2829    4.7245    8.0299 H   0  0  0  0  0  0  0  0  0  0  0  0
    4.6474    4.9591    6.3094 H   0  0  0  0  0  0  0  0  0  0  0  0
    4.5689    3.3183    6.9879 H   0  0  0  0  0  0  0  0  0  0  0  0
   -0.3486    3.2160    6.5148 H   0  0  0  0  0  0  0  0  0  0  0  0
    1.4205    0.6638    6.9215 H   0  0  0  0  0  0  0  0  0  0  0  0
    2.1863    1.7537    5.9529 H   0  0  0  0  0  0  0  0  0  0  0  0
    0.5883    1.2401    5.5229 H   0  0  0  0  0  0  0  0  0  0  0  0
    0.0906    0.7990    8.0826 H   0  0  0  0  0  0  0  0  0  0  0  0
   -1.2891    1.2175    6.8256 H   0  0  0  0  0  0  0  0  0  0  0  0
   -1.2730    1.2514    8.5375 H   0  0  0  0  0  0  0  0  0  0  0  0
   -3.9860    2.8387    7.9528 H   0  0  0  0  0  0  0  0  0  0  0  0
   -2.9798    4.2204    7.6339 H   0  0  0  0  0  0  0  0  0  0  0  0
   -4.7266    3.8186   10.0788 H   0  0  0  0  0  0  0  0  0  0  0  0
   -2.8279    6.1014    9.2891 H   0  0  0  0  0  0  0  0  0  0  0  0
   -2.7340    5.0529   10.7083 H   0  0  0  0  0  0  0  0  0  0  0  0
   -4.0393    6.1904   10.5939 H   0  0  0  0  0  0  0  0  0  0  0  0
   -4.8194    5.7308    7.6796 H   0  0  0  0  0  0  0  0  0  0  0  0
   -5.9802    5.6897    9.0262 H   0  0  0  0  0  0  0  0  0  0  0  0
   -5.8569    4.3165    7.9032 H   0  0  0  0  0  0  0  0  0  0  0  0
   -3.7799    0.9618   11.6387 H   0  0  0  0  0  0  0  0  0  0  0  0
   -3.1726    2.6314   11.5825 H   0  0  0  0  0  0  0  0  0  0  0  0
   -2.0395    1.2763   11.6811 H   0  0  0  0  0  0  0  0  0  0  0  0
   -5.2557   -2.3824    6.2810 H   0  0  0  0  0  0  0  0  0  0  0  0
   -4.9061   -0.7928    6.7710 H   0  0  0  0  0  0  0  0  0  0  0  0
   -4.6355   -1.9359    7.9334 H   0  0  0  0  0  0  0  0  0  0  0  0
  1  2  1  0  0  0  0
  1102  1  0  0  0  0
  1103  1  0  0  0  0
  1104  1  0  0  0  0
  2  3  1  0  0  0  0
  2105  1  0  0  0  0
  2106  1  0  0  0  0
  3  4  1  0  0  0  0
  3 47  1  0  0  0  0
  3107  1  0  0  0  0
  4  5  2  0  0  0  0
  4  6  1  0  0  0  0
  6  7  1  0  0  0  0
  6101  1  0  0  0  0
  7  8  1  0  0  0  0
  7108  1  0  0  0  0
  7109  1  0  0  0  0
  8  9  2  0  0  0  0
  8 10  1  0  0  0  0
 10 11  1  0  0  0  0
 10100  1  0  0  0  0
 11 12  1  0  0  0  0
 11 96  1  0  0  0  0
 11110  1  0  0  0  0
 12 13  2  0  0  0  0
 12 14  1  0  0  0  0
 14 15  1  0  0  0  0
 14111  1  0  0  0  0
 15 16  1  0  0  0  0
 15 93  1  0  0  0  0
 15112  1  0  0  0  0
 16 17  2  0  0  0  0
 16 18  1  0  0  0  0
 18 19  1  0  0  0  0
 18 92  1  0  0  0  0
 19 20  1  0  0  0  0
 19 88  1  0  0  0  0
 19113  1  0  0  0  0
 20 21  2  0  0  0  0
 20 22  1  0  0  0  0
 22 23  1  0  0  0  0
 22114  1  0  0  0  0
 23 24  1  0  0  0  0
 23 87  1  0  0  0  0
 23115  1  0  0  0  0
 24 25  2  0  0  0  0
 24 26  1  0  0  0  0
 26 27  1  0  0  0  0
 26116  1  0  0  0  0
 27 28  1  0  0  0  0
 27 86  1  0  0  0  0
 27117  1  0  0  0  0
 28 29  2  0  0  0  0
 28 30  1  0  0  0  0
 30 31  1  0  0  0  0
 30 85  1  0  0  0  0
 31 32  1  0  0  0  0
 31 81  1  0  0  0  0
 31118  1  0  0  0  0
 32 33  2  0  0  0  0
 32 34  1  0  0  0  0
 34 35  1  0  0  0  0
 34 80  1  0  0  0  0
 35 36  1  0  0  0  0
 35 76  1  0  0  0  0
 35119  1  0  0  0  0
 36 37  2  0  0  0  0
 36 38  1  0  0  0  0
 38 39  1  0  0  0  0
 38 75  1  0  0  0  0
 39 40  1  0  0  0  0
 39 72  1  0  0  0  0
 39120  1  0  0  0  0
 40 41  2  0  0  0  0
 40 42  1  0  0  0  0
 42 43  1  0  0  0  0
 43 44  1  0  0  0  0
 43 66  1  0  0  0  0
 43121  1  0  0  0  0
 44 45  1  0  0  0  0
 44 48  1  0  0  0  0
 44122  1  0  0  0  0
 45 46  2  0  0  0  0
 45 47  1  0  0  0  0
 47123  1  0  0  0  0
 48 49  1  0  0  0  0
 48 50  1  0  0  0  0
 49124  1  0  0  0  0
 49125  1  0  0  0  0
 49126  1  0  0  0  0
 50 51  2  0  0  0  0
 50 52  2  0  0  0  0
 50 53  1  0  0  0  0
 53 54  2  0  0  0  0
 53 58  1  0  0  0  0
 54 55  1  0  0  0  0
 54127  1  0  0  0  0
 55 56  2  0  0  0  0
 55128  1  0  0  0  0
 56 57  1  0  0  0  0
 56129  1  0  0  0  0
 57 58  2  0  0  0  0
 57 62  1  0  0  0  0
 58 59  1  0  0  0  0
 59 60  2  0  0  0  0
 59130  1  0  0  0  0
 60 61  1  0  0  0  0
 60131  1  0  0  0  0
 61 62  2  0  0  0  0
 61132  1  0  0  0  0
 62 63  1  0  0  0  0
 63 64  1  0  0  0  0
 63 65  1  0  0  0  0
 64133  1  0  0  0  0
 64134  1  0  0  0  0
 64135  1  0  0  0  0
 65136  1  0  0  0  0
 65137  1  0  0  0  0
 65138  1  0  0  0  0
 66 67  1  0  0  0  0
 66 68  1  0  0  0  0
 66139  1  0  0  0  0
 67140  1  0  0  0  0
 67141  1  0  0  0  0
 67142  1  0  0  0  0
 68 69  1  0  0  0  0
 68143  1  0  0  0  0
 68144  1  0  0  0  0
 69 70  2  0  0  0  0
 69145  1  0  0  0  0
 70 71  1  0  0  0  0
 70146  1  0  0  0  0
 71147  1  0  0  0  0
 71148  1  0  0  0  0
 71149  1  0  0  0  0
 72 73  1  0  0  0  0
 72 74  1  0  0  0  0
 72150  1  0  0  0  0
 73151  1  0  0  0  0
 73152  1  0  0  0  0
 73153  1  0  0  0  0
 74154  1  0  0  0  0
 74155  1  0  0  0  0
 74156  1  0  0  0  0
 75157  1  0  0  0  0
 75158  1  0  0  0  0
 75159  1  0  0  0  0
 76 77  1  0  0  0  0
 76160  1  0  0  0  0
 76161  1  0  0  0  0
 77 78  1  0  0  0  0
 77 79  1  0  0  0  0
 77162  1  0  0  0  0
 78163  1  0  0  0  0
 78164  1  0  0  0  0
 78165  1  0  0  0  0
 79166  1  0  0  0  0
 79167  1  0  0  0  0
 79168  1  0  0  0  0
 80169  1  0  0  0  0
 80170  1  0  0  0  0
 80171  1  0  0  0  0
 81 82  1  0  0  0  0
 81172  1  0  0  0  0
 81173  1  0  0  0  0
 82 83  1  0  0  0  0
 82 84  1  0  0  0  0
 82174  1  0  0  0  0
 83175  1  0  0  0  0
 83176  1  0  0  0  0
 83177  1  0  0  0  0
 84178  1  0  0  0  0
 84179  1  0  0  0  0
 84180  1  0  0  0  0
 85181  1  0  0  0  0
 85182  1  0  0  0  0
 85183  1  0  0  0  0
 86184  1  0  0  0  0
 86185  1  0  0  0  0
 86186  1  0  0  0  0
 87187  1  0  0  0  0
 87188  1  0  0  0  0
 87189  1  0  0  0  0
 88 89  1  0  0  0  0
 88190  1  0  0  0  0
 88191  1  0  0  0  0
 89 90  1  0  0  0  0
 89 91  1  0  0  0  0
 89192  1  0  0  0  0
 90193  1  0  0  0  0
 90194  1  0  0  0  0
 90195  1  0  0  0  0
 91196  1  0  0  0  0
 91197  1  0  0  0  0
 91198  1  0  0  0  0
 92199  1  0  0  0  0
 92200  1  0  0  0  0
 92201  1  0  0  0  0
 93 94  1  0  0  0  0
 93 95  1  0  0  0  0
 93202  1  0  0  0  0
 94203  1  0  0  0  0
 94204  1  0  0  0  0
 94205  1  0  0  0  0
 95206  1  0  0  0  0
 95207  1  0  0  0  0
 95208  1  0  0  0  0
 96 97  1  0  0  0  0
 96209  1  0  0  0  0
 96210  1  0  0  0  0
 97 98  1  0  0  0  0
 97 99  1  0  0  0  0
 97211  1  0  0  0  0
 98212  1  0  0  0  0
 98213  1  0  0  0  0
 98214  1  0  0  0  0
 99215  1  0  0  0  0
 99216  1  0  0  0  0
 99217  1  0  0  0  0
100218  1  0  0  0  0
100219  1  0  0  0  0
100220  1  0  0  0  0
101221  1  0  0  0  0
101222  1  0  0  0  0
101223  1  0  0  0  0
M  END
