
 OpenBabel10072616413D

 71 75  0  0  0  0  0  0  0  0999 V2000
    2.2531   -1.1772   -0.5553 C   0  0  0  0  0  0  0  0  0  0  0  0
    0.8862   -0.6114   -0.2831 C   0  0  0  0  0  0  0  0  0  0  0  0
    0.5906    0.7493   -0.1021 C   0  0  0  0  0  0  0  0  0  0  0  0
   -0.7621    1.1460   -0.0195 C   0  0  0  0  0  0  0  0  0  0  0  0
   -1.8123    0.2267   -0.0337 C   0  0  0  0  0  0  0  0  0  0  0  0
   -1.5061   -1.1265   -0.1132 C   0  0  0  0  0  0  0  0  0  0  0  0
   -0.1776   -1.5370   -0.2482 C   0  0  0  0  0  0  0  0  0  0  0  0
   -3.1723    0.5915    0.0600 N   0  0  0  0  0  0  0  0  0  0  0  0
   -3.7006    1.8638   -0.0866 C   0  0  0  0  0  0  0  0  0  0  0  0
   -3.0603    2.8554   -0.4152 O   0  0  0  0  0  0  0  0  0  0  0  0
   -5.0571    1.8618    0.2095 N   0  0  0  0  0  0  0  0  0  0  0  0
   -5.9372    2.9493    0.0369 C   0  0  0  0  0  0  0  0  0  0  0  0
   -5.6646    4.0111   -0.8299 C   0  0  0  0  0  0  0  0  0  0  0  0
   -6.5545    5.0801   -0.9493 C   0  0  0  0  0  0  0  0  0  0  0  0
   -7.7253    5.0976   -0.1873 C   0  0  0  0  0  0  0  0  0  0  0  0
   -8.0337    4.0152    0.6421 C   0  0  0  0  0  0  0  0  0  0  0  0
   -7.1428    2.9415    0.7488 C   0  0  0  0  0  0  0  0  0  0  0  0
   -8.6555    6.2505   -0.2454 C   0  0  0  0  0  0  0  0  0  0  0  0
   -9.8666    6.0510   -0.2316 O   0  0  0  0  0  0  0  0  0  0  0  0
   -8.1342    7.6400   -0.3057 C   0  0  0  0  0  0  0  0  0  0  0  0
   -6.9546    8.0059    0.3556 C   0  0  0  0  0  0  0  0  0  0  0  0
   -6.5033    9.3244    0.2923 C   0  0  0  0  0  0  0  0  0  0  0  0
   -7.2285   10.2778   -0.4229 C   0  0  0  0  0  0  0  0  0  0  0  0
   -8.4108    9.9182   -1.0701 C   0  0  0  0  0  0  0  0  0  0  0  0
   -8.8696    8.6027   -1.0044 C   0  0  0  0  0  0  0  0  0  0  0  0
    1.5138    1.8244   -0.0384 N   0  0  0  0  0  0  0  0  0  0  0  0
    2.8220    1.8180    0.4088 C   0  0  0  0  0  0  0  0  0  0  0  0
    3.3960    0.8576    0.9025 O   0  0  0  0  0  0  0  0  0  0  0  0
    3.4049    3.0772    0.2637 N   0  0  0  0  0  0  0  0  0  0  0  0
    4.7714    3.3494    0.4838 C   0  0  0  0  0  0  0  0  0  0  0  0
    5.7474    2.3715    0.2834 C   0  0  0  0  0  0  0  0  0  0  0  0
    7.0907    2.6441    0.5331 C   0  0  0  0  0  0  0  0  0  0  0  0
    7.4658    3.8964    1.0210 C   0  0  0  0  0  0  0  0  0  0  0  0
    6.5046    4.9024    1.1663 C   0  0  0  0  0  0  0  0  0  0  0  0
    5.1595    4.6325    0.8851 C   0  0  0  0  0  0  0  0  0  0  0  0
    8.8835    4.1828    1.3512 C   0  0  0  0  0  0  0  0  0  0  0  0
    9.3532    5.2888    1.0966 O   0  0  0  0  0  0  0  0  0  0  0  0
    9.7422    3.1478    1.9870 C   0  0  0  0  0  0  0  0  0  0  0  0
    9.2369    2.2446    2.9321 C   0  0  0  0  0  0  0  0  0  0  0  0
   10.0857    1.3017    3.5173 C   0  0  0  0  0  0  0  0  0  0  0  0
   11.4358    1.2611    3.1649 C   0  0  0  0  0  0  0  0  0  0  0  0
   11.9423    2.1641    2.2305 C   0  0  0  0  0  0  0  0  0  0  0  0
   11.0994    3.1119    1.6498 C   0  0  0  0  0  0  0  0  0  0  0  0
    2.8900   -0.4639   -1.0854 H   0  0  0  0  0  0  0  0  0  0  0  0
    2.1762   -2.0467   -1.2202 H   0  0  0  0  0  0  0  0  0  0  0  0
    2.7330   -1.5056    0.3728 H   0  0  0  0  0  0  0  0  0  0  0  0
   -0.9807    2.2025    0.0964 H   0  0  0  0  0  0  0  0  0  0  0  0
   -2.2893   -1.8788   -0.1019 H   0  0  0  0  0  0  0  0  0  0  0  0
    0.0243   -2.6009   -0.3588 H   0  0  0  0  0  0  0  0  0  0  0  0
   -3.8406   -0.1634    0.0318 H   0  0  0  0  0  0  0  0  0  0  0  0
   -5.3715    1.1211    0.8188 H   0  0  0  0  0  0  0  0  0  0  0  0
   -4.7675    4.0233   -1.4424 H   0  0  0  0  0  0  0  0  0  0  0  0
   -6.3154    5.8890   -1.6360 H   0  0  0  0  0  0  0  0  0  0  0  0
   -8.9574    4.0143    1.2185 H   0  0  0  0  0  0  0  0  0  0  0  0
   -7.3927    2.1195    1.4148 H   0  0  0  0  0  0  0  0  0  0  0  0
   -6.3851    7.2837    0.9361 H   0  0  0  0  0  0  0  0  0  0  0  0
   -5.5917    9.6103    0.8114 H   0  0  0  0  0  0  0  0  0  0  0  0
   -6.8787   11.3065   -0.4633 H   0  0  0  0  0  0  0  0  0  0  0  0
   -8.9827   10.6631   -1.6172 H   0  0  0  0  0  0  0  0  0  0  0  0
   -9.8003    8.3286   -1.4958 H   0  0  0  0  0  0  0  0  0  0  0  0
    1.0953    2.7399   -0.0817 H   0  0  0  0  0  0  0  0  0  0  0  0
    2.7818    3.8681    0.2484 H   0  0  0  0  0  0  0  0  0  0  0  0
    5.4791    1.3883   -0.0930 H   0  0  0  0  0  0  0  0  0  0  0  0
    7.8290    1.8711    0.3403 H   0  0  0  0  0  0  0  0  0  0  0  0
    6.7992    5.8901    1.5141 H   0  0  0  0  0  0  0  0  0  0  0  0
    4.4256    5.4208    1.0269 H   0  0  0  0  0  0  0  0  0  0  0  0
    8.1925    2.2709    3.2348 H   0  0  0  0  0  0  0  0  0  0  0  0
    9.6960    0.6080    4.2592 H   0  0  0  0  0  0  0  0  0  0  0  0
   12.0947    0.5293    3.6260 H   0  0  0  0  0  0  0  0  0  0  0  0
   12.9953    2.1392    1.9616 H   0  0  0  0  0  0  0  0  0  0  0  0
   11.5015    3.8253    0.9344 H   0  0  0  0  0  0  0  0  0  0  0  0
  1  2  1  0  0  0  0
  1 44  1  0  0  0  0
  1 45  1  0  0  0  0
  1 46  1  0  0  0  0
  2  3  2  0  0  0  0
  2  7  1  0  0  0  0
  3  4  1  0  0  0  0
  3 26  1  0  0  0  0
  4  5  2  0  0  0  0
  4 47  1  0  0  0  0
  5  6  1  0  0  0  0
  5  8  1  0  0  0  0
  6  7  2  0  0  0  0
  6 48  1  0  0  0  0
  7 49  1  0  0  0  0
  8  9  1  0  0  0  0
  8 50  1  0  0  0  0
  9 10  2  0  0  0  0
  9 11  1  0  0  0  0
 11 12  1  0  0  0  0
 11 51  1  0  0  0  0
 12 13  2  0  0  0  0
 12 17  1  0  0  0  0
 13 14  1  0  0  0  0
 13 52  1  0  0  0  0
 14 15  2  0  0  0  0
 14 53  1  0  0  0  0
 15 16  1  0  0  0  0
 15 18  1  0  0  0  0
 16 17  2  0  0  0  0
 16 54  1  0  0  0  0
 17 55  1  0  0  0  0
 18 19  2  0  0  0  0
 18 20  1  0  0  0  0
 20 21  2  0  0  0  0
 20 25  1  0  0  0  0
 21 22  1  0  0  0  0
 21 56  1  0  0  0  0
 22 23  2  0  0  0  0
 22 57  1  0  0  0  0
 23 24  1  0  0  0  0
 23 58  1  0  0  0  0
 24 25  2  0  0  0  0
 24 59  1  0  0  0  0
 25 60  1  0  0  0  0
 26 27  1  0  0  0  0
 26 61  1  0  0  0  0
 27 28  2  0  0  0  0
 27 29  1  0  0  0  0
 29 30  1  0  0  0  0
 29 62  1  0  0  0  0
 30 31  2  0  0  0  0
 30 35  1  0  0  0  0
 31 32  1  0  0  0  0
 31 63  1  0  0  0  0
 32 33  2  0  0  0  0
 32 64  1  0  0  0  0
 33 34  1  0  0  0  0
 33 36  1  0  0  0  0
 34 35  2  0  0  0  0
 34 65  1  0  0  0  0
 35 66  1  0  0  0  0
 36 37  2  0  0  0  0
 36 38  1  0  0  0  0
 38 39  2  0  0  0  0
 38 43  1  0  0  0  0
 39 40  1  0  0  0  0
 39 67  1  0  0  0  0
 40 41  2  0  0  0  0
 40 68  1  0  0  0  0
 41 42  1  0  0  0  0
 41 69  1  0  0  0  0
 42 43  2  0  0  0  0
 42 70  1  0  0  0  0
 43 71  1  0  0  0  0
M  END
