
 OpenBabel10072619563D

 51 50  0  0  1  0  0  0  0  0999 V2000
    0.8864    1.1472    0.0652 C   0  0  0  0  0  0  0  0  0  0  0  0
    2.3977    0.9823    0.0512 C   0  0  0  0  0  0  0  0  0  0  0  0
    2.9567    1.0993   -1.3667 C   0  0  0  0  0  0  0  0  0  0  0  0
    4.4763    0.9296   -1.3821 C   0  0  0  0  0  0  0  0  0  0  0  0
    5.0364    1.0463   -2.8015 C   0  0  0  0  0  0  0  0  0  0  0  0
    6.5573    0.8896   -2.8095 C   0  0  0  0  0  0  0  0  0  0  0  0
    7.1328    1.0247   -4.2200 C   0  0  0  0  0  0  0  0  0  0  0  0
    8.6558    0.8874   -4.2045 C   0  0  0  0  0  0  0  0  0  0  0  0
    9.2489    1.0385   -5.6056 C   0  0  0  0  0  0  0  0  0  0  0  0
   10.7730    0.9090   -5.5738 C   0  0  0  0  0  0  0  0  0  0  0  0
   11.3767    1.0625   -6.9737 C   0  0  0  0  0  0  0  0  0  0  0  0
   12.9035    0.8908   -6.9693 C   0  0  3  0  0  0  0  0  0  0  0  0
   13.4636    0.9987   -8.3939 C   0  0  0  0  0  0  0  0  0  0  0  0
   14.9684    0.7656   -8.4398 C   0  0  0  0  0  0  0  0  0  0  0  0
   13.4774    1.9574   -6.1871 O   0  0  0  0  0  0  0  0  0  0  0  0
   14.1355    1.5990   -5.0584 C   0  0  0  0  0  0  0  0  0  0  0  0
   14.3005    0.4707   -4.6279 O   0  0  0  0  0  0  0  0  0  0  0  0
   14.6258    2.8366   -4.4138 C   0  0  0  0  0  0  0  0  0  0  0  0
   15.2930    2.7855   -3.2541 C   0  0  0  0  0  0  0  0  0  0  0  0
    0.5039    1.0581    1.0868 H   0  0  0  0  0  0  0  0  0  0  0  0
    0.4037    0.3790   -0.5476 H   0  0  0  0  0  0  0  0  0  0  0  0
    0.5964    2.1291   -0.3226 H   0  0  0  0  0  0  0  0  0  0  0  0
    2.6578    0.0056    0.4757 H   0  0  0  0  0  0  0  0  0  0  0  0
    2.8496    1.7462    0.6946 H   0  0  0  0  0  0  0  0  0  0  0  0
    2.6920    2.0780   -1.7851 H   0  0  0  0  0  0  0  0  0  0  0  0
    2.4946    0.3384   -2.0074 H   0  0  0  0  0  0  0  0  0  0  0  0
    4.7407   -0.0485   -0.9619 H   0  0  0  0  0  0  0  0  0  0  0  0
    4.9361    1.6921   -0.7413 H   0  0  0  0  0  0  0  0  0  0  0  0
    4.7644    2.0210   -3.2244 H   0  0  0  0  0  0  0  0  0  0  0  0
    4.5837    0.2781   -3.4401 H   0  0  0  0  0  0  0  0  0  0  0  0
    6.8268   -0.0899   -2.3966 H   0  0  0  0  0  0  0  0  0  0  0  0
    7.0062    1.6486   -2.1574 H   0  0  0  0  0  0  0  0  0  0  0  0
    6.8538    1.9982   -4.6406 H   0  0  0  0  0  0  0  0  0  0  0  0
    6.7000    0.2550   -4.8703 H   0  0  0  0  0  0  0  0  0  0  0  0
    8.9304   -0.0918   -3.7941 H   0  0  0  0  0  0  0  0  0  0  0  0
    9.0859    1.6474   -3.5406 H   0  0  0  0  0  0  0  0  0  0  0  0
    8.9717    2.0152   -6.0204 H   0  0  0  0  0  0  0  0  0  0  0  0
    8.8269    0.2732   -6.2680 H   0  0  0  0  0  0  0  0  0  0  0  0
   11.0504   -0.0683   -5.1604 H   0  0  0  0  0  0  0  0  0  0  0  0
   11.1844    1.6728   -4.9036 H   0  0  0  0  0  0  0  0  0  0  0  0
   11.1201    2.0580   -7.3576 H   0  0  0  0  0  0  0  0  0  0  0  0
   10.9275    0.3223   -7.6468 H   0  0  0  0  0  0  0  0  0  0  0  0
   13.1524   -0.0983   -6.5659 H   0  0  0  0  0  0  0  0  0  0  0  0
   13.2607    1.9972   -8.7997 H   0  0  0  0  0  0  0  0  0  0  0  0
   12.9707    0.2669   -9.0443 H   0  0  0  0  0  0  0  0  0  0  0  0
   15.5074    1.5315   -7.8734 H   0  0  0  0  0  0  0  0  0  0  0  0
   15.3244    0.8024   -9.4743 H   0  0  0  0  0  0  0  0  0  0  0  0
   15.2251   -0.2148   -8.0262 H   0  0  0  0  0  0  0  0  0  0  0  0
   14.4225    3.7767   -4.9119 H   0  0  0  0  0  0  0  0  0  0  0  0
   15.4932    1.8403   -2.7554 H   0  0  0  0  0  0  0  0  0  0  0  0
   15.6522    3.6921   -2.7788 H   0  0  0  0  0  0  0  0  0  0  0  0
  1  2  1  0  0  0  0
  1 20  1  0  0  0  0
  1 21  1  0  0  0  0
  1 22  1  0  0  0  0
  2  3  1  0  0  0  0
  2 23  1  0  0  0  0
  2 24  1  0  0  0  0
  3  4  1  0  0  0  0
  3 25  1  0  0  0  0
  3 26  1  0  0  0  0
  4  5  1  0  0  0  0
  4 27  1  0  0  0  0
  4 28  1  0  0  0  0
  5  6  1  0  0  0  0
  5 29  1  0  0  0  0
  5 30  1  0  0  0  0
  6  7  1  0  0  0  0
  6 31  1  0  0  0  0
  6 32  1  0  0  0  0
  7  8  1  0  0  0  0
  7 33  1  0  0  0  0
  7 34  1  0  0  0  0
  8  9  1  0  0  0  0
  8 35  1  0  0  0  0
  8 36  1  0  0  0  0
  9 10  1  0  0  0  0
  9 37  1  0  0  0  0
  9 38  1  0  0  0  0
 10 11  1  0  0  0  0
 10 39  1  0  0  0  0
 10 40  1  0  0  0  0
 11 12  1  0  0  0  0
 11 41  1  0  0  0  0
 11 42  1  0  0  0  0
 12 13  1  0  0  0  0
 12 15  1  0  0  0  0
 12 43  1  0  0  0  0
 13 14  1  0  0  0  0
 13 44  1  0  0  0  0
 13 45  1  0  0  0  0
 14 46  1  0  0  0  0
 14 47  1  0  0  0  0
 14 48  1  0  0  0  0
 15 16  1  0  0  0  0
 16 17  2  0  0  0  0
 16 18  1  0  0  0  0
 18 19  2  0  0  0  0
 18 49  1  0  0  0  0
 19 50  1  0  0  0  0
 19 51  1  0  0  0  0
M  END
