
 OpenBabel10072619573D

 21 21  0  0  0  0  0  0  0  0999 V2000
   -2.3568    0.0262    0.0402 C   0  0  0  0  0  0  0  0  0  0  0  0
   -0.8820    0.0249    0.0455 N   0  3  0  0  0  0  0  0  0  0  0  0
   -0.1977    1.1835   -0.0920 C   0  0  0  0  0  0  0  0  0  0  0  0
    1.1931    1.1919   -0.0830 C   0  0  0  0  0  0  0  0  0  0  0  0
    1.8826   -0.0105    0.0676 C   0  0  0  0  0  0  0  0  0  0  0  0
    1.1568   -1.1945    0.2040 C   0  0  0  0  0  0  0  0  0  0  0  0
   -0.2306   -1.1516    0.1893 C   0  0  0  0  0  0  0  0  0  0  0  0
    3.3667   -0.0935    0.0864 C   0  0  0  0  0  0  0  0  0  0  0  0
    3.9600   -1.1513    0.2065 O   0  0  0  0  0  0  0  0  0  0  0  0
    3.9155    1.1360   -0.0404 O   0  0  0  0  0  0  0  0  0  0  0  0
    5.3469    1.1329   -0.0172 C   0  0  0  0  0  0  0  0  0  0  0  0
   -2.7304    1.0509   -0.0171 H   0  0  0  0  0  0  0  0  0  0  0  0
   -2.6961   -0.4415    0.9683 H   0  0  0  0  0  0  0  0  0  0  0  0
   -2.6872   -0.5450   -0.8313 H   0  0  0  0  0  0  0  0  0  0  0  0
   -0.7700    2.1000   -0.2107 H   0  0  0  0  0  0  0  0  0  0  0  0
    1.7226    2.1362   -0.1947 H   0  0  0  0  0  0  0  0  0  0  0  0
    1.6685   -2.1496    0.3202 H   0  0  0  0  0  0  0  0  0  0  0  0
   -0.8327   -2.0509    0.2922 H   0  0  0  0  0  0  0  0  0  0  0  0
    5.6908    2.1630   -0.1444 H   0  0  0  0  0  0  0  0  0  0  0  0
    5.7431    0.5300   -0.8405 H   0  0  0  0  0  0  0  0  0  0  0  0
    5.7103    0.7609    0.9460 H   0  0  0  0  0  0  0  0  0  0  0  0
  1  2  1  0  0  0  0
  1 12  1  0  0  0  0
  1 13  1  0  0  0  0
  1 14  1  0  0  0  0
  2  3  2  0  0  0  0
  2  7  1  0  0  0  0
  3  4  1  0  0  0  0
  3 15  1  0  0  0  0
  4  5  2  0  0  0  0
  4 16  1  0  0  0  0
  5  6  1  0  0  0  0
  5  8  1  0  0  0  0
  6  7  2  0  0  0  0
  6 17  1  0  0  0  0
  7 18  1  0  0  0  0
  8  9  2  0  0  0  0
  8 10  1  0  0  0  0
 10 11  1  0  0  0  0
 11 19  1  0  0  0  0
 11 20  1  0  0  0  0
 11 21  1  0  0  0  0
M  CHG  1   2   1
M  END
