
 OpenBabel10072620063D

 35 36  0  0  0  0  0  0  0  0999 V2000
    0.9064    0.4526    2.1212 C   0  0  0  0  0  0  0  0  0  0  0  0
    1.9003    0.5500    1.1743 C   0  0  0  0  0  0  0  0  0  0  0  0
    2.0423   -0.8791    0.2512 S   0  0  0  0  0  0  0  0  0  0  0  0
    0.7668   -1.6443    1.1011 C   0  0  0  0  0  0  0  0  0  0  0  0
    0.2530   -0.8134    2.0804 C   0  0  0  0  0  0  0  0  0  0  0  0
    0.3265   -2.9964    0.7873 C   0  0  0  0  0  0  0  0  0  0  0  0
   -0.6062   -3.5399    1.3833 O   0  0  0  0  0  0  0  0  0  0  0  0
    1.0483   -3.7558   -0.3089 C   0  0  0  0  0  0  0  0  0  0  0  0
    0.4825   -5.1193   -0.4645 N   0  3  0  0  0  0  0  0  0  0  0  0
    0.9293   -6.1158    0.3349 C   0  0  0  0  0  0  0  0  0  0  0  0
    0.4346   -7.4025    0.2013 C   0  0  0  0  0  0  0  0  0  0  0  0
   -0.5414   -7.6652   -0.7578 C   0  0  0  0  0  0  0  0  0  0  0  0
   -1.0072   -6.6256   -1.5580 C   0  0  0  0  0  0  0  0  0  0  0  0
   -0.4813   -5.3510   -1.3862 C   0  0  0  0  0  0  0  0  0  0  0  0
   -1.0019   -9.0669   -0.9218 C   0  0  0  0  0  0  0  0  0  0  0  0
   -0.2879   -9.9819   -0.5264 O   0  0  0  0  0  0  0  0  0  0  0  0
   -2.2385   -9.2578   -1.4970 N   0  0  0  0  0  0  0  0  0  0  0  0
   -2.8148  -10.5928   -1.5754 C   0  0  0  0  0  0  0  0  0  0  0  0
   -3.4875  -11.0082   -0.2625 C   0  0  0  0  0  0  0  0  0  0  0  0
   -2.5788  -11.0291    0.8342 O   0  0  0  0  0  0  0  0  0  0  0  0
    0.6608    1.2505    2.8138 H   0  0  0  0  0  0  0  0  0  0  0  0
    2.5513    1.3944    0.9848 H   0  0  0  0  0  0  0  0  0  0  0  0
   -0.5587   -1.0960    2.7446 H   0  0  0  0  0  0  0  0  0  0  0  0
    2.1078   -3.8772   -0.0622 H   0  0  0  0  0  0  0  0  0  0  0  0
    0.9434   -3.2418   -1.2691 H   0  0  0  0  0  0  0  0  0  0  0  0
    1.6904   -5.8755    1.0727 H   0  0  0  0  0  0  0  0  0  0  0  0
    0.8137   -8.1987    0.8396 H   0  0  0  0  0  0  0  0  0  0  0  0
   -1.7498   -6.7921   -2.3327 H   0  0  0  0  0  0  0  0  0  0  0  0
   -0.8179   -4.5146   -1.9940 H   0  0  0  0  0  0  0  0  0  0  0  0
   -2.8919   -8.4903   -1.5635 H   0  0  0  0  0  0  0  0  0  0  0  0
   -2.0182  -11.2998   -1.8308 H   0  0  0  0  0  0  0  0  0  0  0  0
   -3.5450  -10.5813   -2.3888 H   0  0  0  0  0  0  0  0  0  0  0  0
   -3.9215  -12.0062   -0.3665 H   0  0  0  0  0  0  0  0  0  0  0  0
   -4.2902  -10.3102   -0.0054 H   0  0  0  0  0  0  0  0  0  0  0  0
   -1.6716  -11.1126    0.4758 H   0  0  0  0  0  0  0  0  0  0  0  0
  1  2  2  0  0  0  0
  1  5  1  0  0  0  0
  1 21  1  0  0  0  0
  2  3  1  0  0  0  0
  2 22  1  0  0  0  0
  3  4  1  0  0  0  0
  4  5  2  0  0  0  0
  4  6  1  0  0  0  0
  5 23  1  0  0  0  0
  6  7  2  0  0  0  0
  6  8  1  0  0  0  0
  8  9  1  0  0  0  0
  8 24  1  0  0  0  0
  8 25  1  0  0  0  0
  9 10  2  0  0  0  0
  9 14  1  0  0  0  0
 10 11  1  0  0  0  0
 10 26  1  0  0  0  0
 11 12  2  0  0  0  0
 11 27  1  0  0  0  0
 12 13  1  0  0  0  0
 12 15  1  0  0  0  0
 13 14  2  0  0  0  0
 13 28  1  0  0  0  0
 14 29  1  0  0  0  0
 15 16  2  0  0  0  0
 15 17  1  0  0  0  0
 17 18  1  0  0  0  0
 17 30  1  0  0  0  0
 18 19  1  0  0  0  0
 18 31  1  0  0  0  0
 18 32  1  0  0  0  0
 19 20  1  0  0  0  0
 19 33  1  0  0  0  0
 19 34  1  0  0  0  0
 20 35  1  0  0  0  0
M  CHG  1   9   1
M  END
