
 OpenBabel10072620173D

 82 86  0  0  1  0  0  0  0  0999 V2000
  -12.4223   -9.8563    1.8946 C   0  0  0  0  0  0  0  0  0  0  0  0
  -12.5791   -9.0567    3.0322 C   0  0  0  0  0  0  0  0  0  0  0  0
  -11.6457   -8.0620    3.2885 C   0  0  0  0  0  0  0  0  0  0  0  0
  -10.5733   -7.8693    2.4222 C   0  0  0  0  0  0  0  0  0  0  0  0
  -10.4097   -8.6627    1.2959 C   0  0  0  0  0  0  0  0  0  0  0  0
  -11.3399   -9.6684    1.0078 C   0  0  0  0  0  0  0  0  0  0  0  0
  -11.2399  -10.5798   -0.1995 C   0  0  0  0  0  0  0  0  0  0  0  0
  -10.1275  -10.2901   -1.2283 C   0  0  2  0  0  0  0  0  0  0  0  0
  -10.4008  -10.9949   -2.5691 C   0  0  0  0  0  0  0  0  0  0  0  0
  -10.5288  -10.3909   -3.6216 O   0  0  0  0  0  0  0  0  0  0  0  0
  -10.4565  -12.3463   -2.5223 O   0  0  0  0  0  0  0  0  0  0  0  0
   -8.7888  -10.4896   -0.7276 O   0  0  0  0  0  0  0  0  0  0  0  0
   -8.4128  -11.7361   -0.3899 C   0  0  0  0  0  0  0  0  0  0  0  0
   -9.1414  -12.7229   -0.4334 O   0  0  0  0  0  0  0  0  0  0  0  0
   -6.9864  -11.8481   -0.0649 C   0  0  0  0  0  0  0  0  0  0  0  0
   -6.1104  -10.8363    0.0985 C   0  0  0  0  0  0  0  0  0  0  0  0
   -4.7192  -11.1897    0.3574 C   0  0  0  0  0  0  0  0  0  0  0  0
   -3.7431  -11.2018   -0.6323 C   0  0  0  0  0  0  0  0  0  0  0  0
   -3.5944  -10.5760   -1.9907 C   0  0  1  0  0  0  0  0  0  0  0  0
   -2.6245  -11.6086   -2.5782 C   0  0  2  0  0  0  0  0  0  0  0  0
   -1.7418  -12.0003   -1.4858 O   0  0  0  0  0  0  0  0  0  0  0  0
   -2.5577  -11.8901   -0.3849 C   0  0  0  0  0  0  0  0  0  0  0  0
   -2.2432  -12.4456    0.8393 C   0  0  0  0  0  0  0  0  0  0  0  0
   -3.1635  -12.3454    1.8674 C   0  0  0  0  0  0  0  0  0  0  0  0
   -4.4038  -11.7425    1.6191 C   0  0  0  0  0  0  0  0  0  0  0  0
   -1.0740  -13.1070    1.0370 O   0  0  0  0  0  0  0  0  0  0  0  0
   -1.7261  -11.2257   -3.7335 C   0  0  0  0  0  0  0  0  0  0  0  0
   -1.3140   -9.9101   -4.0065 C   0  0  0  0  0  0  0  0  0  0  0  0
   -0.4750   -9.6616   -5.0908 C   0  0  0  0  0  0  0  0  0  0  0  0
   -0.0344  -10.7073   -5.8945 C   0  0  0  0  0  0  0  0  0  0  0  0
   -0.3977  -12.0157   -5.6257 C   0  0  0  0  0  0  0  0  0  0  0  0
   -1.2414  -12.2713   -4.5482 C   0  0  0  0  0  0  0  0  0  0  0  0
    0.7204  -10.4492   -7.0007 O   0  0  0  0  0  0  0  0  0  0  0  0
   -0.0585   -8.4013   -5.4181 O   0  0  0  0  0  0  0  0  0  0  0  0
   -4.8162  -10.2470   -2.8005 C   0  0  0  0  0  0  0  0  0  0  0  0
   -5.6522   -9.4150   -2.4375 O   0  0  0  0  0  0  0  0  0  0  0  0
   -4.8572  -10.8140   -4.0371 O   0  0  0  0  0  0  0  0  0  0  0  0
   -5.9019  -10.2984   -4.8936 C   0  0  2  0  0  0  0  0  0  0  0  0
   -6.3044  -11.3051   -5.9854 C   0  0  0  0  0  0  0  0  0  0  0  0
   -5.4438  -11.5646   -7.2030 C   0  0  0  0  0  0  0  0  0  0  0  0
   -4.0426  -11.5380   -7.1980 C   0  0  0  0  0  0  0  0  0  0  0  0
   -3.3476  -11.8730   -8.3602 C   0  0  0  0  0  0  0  0  0  0  0  0
   -4.0250  -12.2461   -9.5171 C   0  0  0  0  0  0  0  0  0  0  0  0
   -5.4044  -12.2623   -9.5521 C   0  0  0  0  0  0  0  0  0  0  0  0
   -6.1088  -11.9292   -8.3958 C   0  0  0  0  0  0  0  0  0  0  0  0
   -3.3162  -12.6000  -10.6291 O   0  0  0  0  0  0  0  0  0  0  0  0
   -1.9826  -11.8608   -8.4336 O   0  0  0  0  0  0  0  0  0  0  0  0
   -5.6059   -8.8838   -5.4293 C   0  0  0  0  0  0  0  0  0  0  0  0
   -5.1958   -8.6147   -6.5481 O   0  0  0  0  0  0  0  0  0  0  0  0
   -5.7937   -7.9072   -4.5041 O   0  0  0  0  0  0  0  0  0  0  0  0
   -9.6605   -6.8843    2.6722 O   0  0  0  0  0  0  0  0  0  0  0  0
  -11.7310   -7.2447    4.3797 O   0  0  0  0  0  0  0  0  0  0  0  0
  -13.1582  -10.6360    1.6983 H   0  0  0  0  0  0  0  0  0  0  0  0
  -13.4272   -9.2233    3.6906 H   0  0  0  0  0  0  0  0  0  0  0  0
   -9.5505   -8.4698    0.6624 H   0  0  0  0  0  0  0  0  0  0  0  0
  -12.2078  -10.5386   -0.7159 H   0  0  0  0  0  0  0  0  0  0  0  0
  -11.1389  -11.5960    0.1939 H   0  0  0  0  0  0  0  0  0  0  0  0
  -10.1734   -9.2219   -1.4766 H   0  0  0  0  0  0  0  0  0  0  0  0
  -10.2059  -12.7459   -1.6529 H   0  0  0  0  0  0  0  0  0  0  0  0
   -6.6572  -12.8797    0.0181 H   0  0  0  0  0  0  0  0  0  0  0  0
   -6.3840   -9.7923    0.0367 H   0  0  0  0  0  0  0  0  0  0  0  0
   -3.0789   -9.6178   -1.8364 H   0  0  0  0  0  0  0  0  0  0  0  0
   -3.1951  -12.5047   -2.8776 H   0  0  0  0  0  0  0  0  0  0  0  0
   -2.9398  -12.7681    2.8423 H   0  0  0  0  0  0  0  0  0  0  0  0
   -5.1437  -11.7373    2.4205 H   0  0  0  0  0  0  0  0  0  0  0  0
   -0.5864  -13.0658    0.1908 H   0  0  0  0  0  0  0  0  0  0  0  0
   -1.6299   -9.0819   -3.3823 H   0  0  0  0  0  0  0  0  0  0  0  0
   -0.0510  -12.8267   -6.2616 H   0  0  0  0  0  0  0  0  0  0  0  0
   -1.5251  -13.3028   -4.3445 H   0  0  0  0  0  0  0  0  0  0  0  0
    0.8613   -9.4804   -6.9939 H   0  0  0  0  0  0  0  0  0  0  0  0
   -0.4038   -7.7753   -4.7584 H   0  0  0  0  0  0  0  0  0  0  0  0
   -6.8207  -10.2093   -4.2942 H   0  0  0  0  0  0  0  0  0  0  0  0
   -6.4606  -12.2820   -5.5080 H   0  0  0  0  0  0  0  0  0  0  0  0
   -7.2860  -10.9697   -6.3528 H   0  0  0  0  0  0  0  0  0  0  0  0
   -3.4982  -11.2683   -6.3015 H   0  0  0  0  0  0  0  0  0  0  0  0
   -5.9255  -12.5378  -10.4633 H   0  0  0  0  0  0  0  0  0  0  0  0
   -7.1959  -11.9564   -8.4305 H   0  0  0  0  0  0  0  0  0  0  0  0
   -2.3809  -12.5286  -10.3488 H   0  0  0  0  0  0  0  0  0  0  0  0
   -1.6502  -11.2843   -7.7239 H   0  0  0  0  0  0  0  0  0  0  0  0
   -6.0683   -8.2471   -3.6190 H   0  0  0  0  0  0  0  0  0  0  0  0
   -9.9962   -6.4461    3.4787 H   0  0  0  0  0  0  0  0  0  0  0  0
  -12.4798   -7.5422    4.9246 H   0  0  0  0  0  0  0  0  0  0  0  0
  1  2  2  0  0  0  0
  1  6  1  0  0  0  0
  1 53  1  0  0  0  0
  2  3  1  0  0  0  0
  2 54  1  0  0  0  0
  3  4  2  0  0  0  0
  3 52  1  0  0  0  0
  4  5  1  0  0  0  0
  4 51  1  0  0  0  0
  5  6  2  0  0  0  0
  5 55  1  0  0  0  0
  6  7  1  0  0  0  0
  7 56  1  0  0  0  0
  7 57  1  0  0  0  0
  8 12  1  0  0  0  0
  8  9  1  0  0  0  0
  8  7  1  0  0  0  0
  8 58  1  6  0  0  0
  9 10  2  0  0  0  0
  9 11  1  0  0  0  0
 11 59  1  0  0  0  0
 12 13  1  0  0  0  0
 13 14  2  0  0  0  0
 13 15  1  0  0  0  0
 15 16  2  0  0  0  0
 15 60  1  0  0  0  0
 16 17  1  0  0  0  0
 16 61  1  0  0  0  0
 17 18  2  0  0  0  0
 17 25  1  0  0  0  0
 18 19  1  0  0  0  0
 18 22  1  0  0  0  0
 19 20  1  0  0  0  0
 19 35  1  0  0  0  0
 19 62  1  1  0  0  0
 20 21  1  0  0  0  0
 20 27  1  0  0  0  0
 20 63  1  6  0  0  0
 21 22  1  0  0  0  0
 22 23  2  0  0  0  0
 23 24  1  0  0  0  0
 23 26  1  0  0  0  0
 24 25  2  0  0  0  0
 24 64  1  0  0  0  0
 25 65  1  0  0  0  0
 26 66  1  0  0  0  0
 27 28  2  0  0  0  0
 27 32  1  0  0  0  0
 28 29  1  0  0  0  0
 28 67  1  0  0  0  0
 29 30  2  0  0  0  0
 29 34  1  0  0  0  0
 30 31  1  0  0  0  0
 30 33  1  0  0  0  0
 31 32  2  0  0  0  0
 31 68  1  0  0  0  0
 32 69  1  0  0  0  0
 33 70  1  0  0  0  0
 34 71  1  0  0  0  0
 35 36  2  0  0  0  0
 35 37  1  0  0  0  0
 38 48  1  0  0  0  0
 38 39  1  0  0  0  0
 38 37  1  0  0  0  0
 38 72  1  1  0  0  0
 39 40  1  0  0  0  0
 39 73  1  0  0  0  0
 39 74  1  0  0  0  0
 40 41  2  0  0  0  0
 40 45  1  0  0  0  0
 41 42  1  0  0  0  0
 41 75  1  0  0  0  0
 42 43  2  0  0  0  0
 42 47  1  0  0  0  0
 43 44  1  0  0  0  0
 43 46  1  0  0  0  0
 44 45  2  0  0  0  0
 44 76  1  0  0  0  0
 45 77  1  0  0  0  0
 46 78  1  0  0  0  0
 47 79  1  0  0  0  0
 48 49  2  0  0  0  0
 48 50  1  0  0  0  0
 50 80  1  0  0  0  0
 51 81  1  0  0  0  0
 52 82  1  0  0  0  0
M  END
