
 OpenBabel10072620073D

 40 42  0  0  0  0  0  0  0  0999 V2000
   -1.3204   -3.0332   -1.1486 C   0  0  0  0  0  0  0  0  0  0  0  0
   -0.8522   -1.6020   -1.1464 C   0  0  0  0  0  0  0  0  0  0  0  0
   -1.8010   -0.5951   -1.4050 C   0  0  0  0  0  0  0  0  0  0  0  0
   -1.4325    0.7471   -1.4218 C   0  0  0  0  0  0  0  0  0  0  0  0
   -0.1114    1.0996   -1.1808 C   0  0  0  0  0  0  0  0  0  0  0  0
    0.8426    0.1119   -0.9191 C   0  0  0  0  0  0  0  0  0  0  0  0
    0.4931   -1.2439   -0.8987 C   0  0  0  0  0  0  0  0  0  0  0  0
    1.4312   -2.2719   -0.6310 N   0  0  0  0  0  0  0  0  0  0  0  0
    2.7929   -2.1520   -0.3790 C   0  0  0  0  0  0  0  0  0  0  0  0
    3.4159   -1.0991   -0.3898 O   0  0  0  0  0  0  0  0  0  0  0  0
    3.3388   -3.3908   -0.1054 N   0  0  0  0  0  0  0  0  0  0  0  0
    4.6500   -3.6685    0.1904 C   0  0  0  0  0  0  0  0  0  0  0  0
    5.0418   -4.8788    0.5265 N   0  0  0  0  0  0  0  0  0  0  0  0
    6.3942   -4.9342    0.7975 N   0  0  0  0  0  0  0  0  0  0  0  0
    6.9754   -3.7610    0.6413 C   0  0  0  0  0  0  0  0  0  0  0  0
    5.8985   -2.5130    0.1550 S   0  0  0  0  0  0  0  0  0  0  0  0
    8.4197   -3.4767    0.8899 C   0  0  0  0  0  0  0  0  0  0  0  0
    9.0482   -3.3344   -0.3843 O   0  0  0  0  0  0  0  0  0  0  0  0
   10.3791   -3.0216   -0.3896 C   0  0  0  0  0  0  0  0  0  0  0  0
   11.1859   -2.8423    0.7374 C   0  0  0  0  0  0  0  0  0  0  0  0
   12.5376   -2.5185    0.5843 C   0  0  0  0  0  0  0  0  0  0  0  0
   13.0753   -2.3787   -0.6896 C   0  0  0  0  0  0  0  0  0  0  0  0
   12.2869   -2.5566   -1.8180 C   0  0  0  0  0  0  0  0  0  0  0  0
   10.9373   -2.8785   -1.6654 C   0  0  0  0  0  0  0  0  0  0  0  0
   14.3708   -2.0692   -0.8287 F   0  0  0  0  0  0  0  0  0  0  0  0
   -2.3964   -3.1064   -1.3409 H   0  0  0  0  0  0  0  0  0  0  0  0
   -1.1298   -3.4973   -0.1752 H   0  0  0  0  0  0  0  0  0  0  0  0
   -0.8059   -3.5970   -1.9339 H   0  0  0  0  0  0  0  0  0  0  0  0
   -2.8407   -0.8523   -1.5970 H   0  0  0  0  0  0  0  0  0  0  0  0
   -2.1743    1.5154   -1.6227 H   0  0  0  0  0  0  0  0  0  0  0  0
    0.1848    2.1455   -1.1926 H   0  0  0  0  0  0  0  0  0  0  0  0
    1.8583    0.4456   -0.7330 H   0  0  0  0  0  0  0  0  0  0  0  0
    1.0697   -3.2109   -0.6559 H   0  0  0  0  0  0  0  0  0  0  0  0
    2.7395   -4.1943   -0.0196 H   0  0  0  0  0  0  0  0  0  0  0  0
    8.8644   -4.3162    1.4382 H   0  0  0  0  0  0  0  0  0  0  0  0
    8.5199   -2.5572    1.4794 H   0  0  0  0  0  0  0  0  0  0  0  0
   10.8022   -2.9462    1.7467 H   0  0  0  0  0  0  0  0  0  0  0  0
   13.1738   -2.3752    1.4519 H   0  0  0  0  0  0  0  0  0  0  0  0
   12.7230   -2.4445   -2.8050 H   0  0  0  0  0  0  0  0  0  0  0  0
   10.3152   -3.0195   -2.5466 H   0  0  0  0  0  0  0  0  0  0  0  0
  1  2  1  0  0  0  0
  1 26  1  0  0  0  0
  1 27  1  0  0  0  0
  1 28  1  0  0  0  0
  2  3  2  0  0  0  0
  2  7  1  0  0  0  0
  3  4  1  0  0  0  0
  3 29  1  0  0  0  0
  4  5  2  0  0  0  0
  4 30  1  0  0  0  0
  5  6  1  0  0  0  0
  5 31  1  0  0  0  0
  6  7  2  0  0  0  0
  6 32  1  0  0  0  0
  7  8  1  0  0  0  0
  8  9  1  0  0  0  0
  8 33  1  0  0  0  0
  9 10  2  0  0  0  0
  9 11  1  0  0  0  0
 11 12  1  0  0  0  0
 11 34  1  0  0  0  0
 12 13  2  0  0  0  0
 12 16  1  0  0  0  0
 13 14  1  0  0  0  0
 14 15  2  0  0  0  0
 15 16  1  0  0  0  0
 15 17  1  0  0  0  0
 17 18  1  0  0  0  0
 17 35  1  0  0  0  0
 17 36  1  0  0  0  0
 18 19  1  0  0  0  0
 19 20  2  0  0  0  0
 19 24  1  0  0  0  0
 20 21  1  0  0  0  0
 20 37  1  0  0  0  0
 21 22  2  0  0  0  0
 21 38  1  0  0  0  0
 22 23  1  0  0  0  0
 22 25  1  0  0  0  0
 23 24  2  0  0  0  0
 23 39  1  0  0  0  0
 24 40  1  0  0  0  0
M  END
