
 OpenBabel10072620173D

 24 25  0  0  0  0  0  0  0  0999 V2000
    1.3336   -0.3123   -0.0431 C   0  0  0  0  0  0  0  0  0  0  0  0
    0.4448   -1.0578    0.7260 C   0  0  0  0  0  0  0  0  0  0  0  0
   -0.9171   -0.7477    0.7143 C   0  0  0  0  0  0  0  0  0  0  0  0
   -1.4123    0.3088   -0.0663 C   0  0  0  0  0  0  0  0  0  0  0  0
   -0.5028    1.0537   -0.8323 C   0  0  0  0  0  0  0  0  0  0  0  0
    0.8614    0.7430   -0.8202 C   0  0  0  0  0  0  0  0  0  0  0  0
   -2.8484    0.5899   -0.0476 C   0  0  0  0  0  0  0  0  0  0  0  0
   -3.7620   -0.0083    0.6921 N   0  0  0  0  0  0  0  0  0  0  0  0
   -4.9306    0.6031    0.3576 C   0  0  0  0  0  0  0  0  0  0  0  0
   -4.8117    1.5476   -0.5790 N   0  0  0  0  0  0  0  0  0  0  0  0
   -3.4892    1.5240   -0.8142 N   0  0  0  0  0  0  0  0  0  0  0  0
   -6.1475    0.2937    0.8882 N   0  0  0  0  0  0  0  0  0  0  0  0
   -6.3608   -0.5797    1.9085 C   0  0  0  0  0  0  0  0  0  0  0  0
   -5.5463   -1.2075    2.5689 O   0  0  0  0  0  0  0  0  0  0  0  0
   -7.6923   -0.7212    2.1927 N   0  0  0  0  0  0  0  0  0  0  0  0
    2.3937   -0.5526   -0.0341 H   0  0  0  0  0  0  0  0  0  0  0  0
    0.8060   -1.8808    1.3374 H   0  0  0  0  0  0  0  0  0  0  0  0
   -1.6011   -1.3391    1.3239 H   0  0  0  0  0  0  0  0  0  0  0  0
   -0.8246    1.8889   -1.4466 H   0  0  0  0  0  0  0  0  0  0  0  0
    1.5575    1.3275   -1.4169 H   0  0  0  0  0  0  0  0  0  0  0  0
   -3.0995    2.1544   -1.5030 H   0  0  0  0  0  0  0  0  0  0  0  0
   -6.9009    0.8694    0.5587 H   0  0  0  0  0  0  0  0  0  0  0  0
   -8.3274   -0.7497    1.4088 H   0  0  0  0  0  0  0  0  0  0  0  0
   -7.8559   -1.4425    2.8856 H   0  0  0  0  0  0  0  0  0  0  0  0
  1  2  2  0  0  0  0
  1  6  1  0  0  0  0
  1 16  1  0  0  0  0
  2  3  1  0  0  0  0
  2 17  1  0  0  0  0
  3  4  2  0  0  0  0
  3 18  1  0  0  0  0
  4  5  1  0  0  0  0
  4  7  1  0  0  0  0
  5  6  2  0  0  0  0
  5 19  1  0  0  0  0
  6 20  1  0  0  0  0
  7  8  2  0  0  0  0
  7 11  1  0  0  0  0
  8  9  1  0  0  0  0
  9 10  2  0  0  0  0
  9 12  1  0  0  0  0
 10 11  1  0  0  0  0
 11 21  1  0  0  0  0
 12 13  1  0  0  0  0
 12 22  1  0  0  0  0
 13 14  2  0  0  0  0
 13 15  1  0  0  0  0
 15 23  1  0  0  0  0
 15 24  1  0  0  0  0
M  END
