
 OpenBabel10072619583D

 47 49  0  0  1  0  0  0  0  0999 V2000
    0.9872   -0.7261    0.3763 C   0  0  0  0  0  0  0  0  0  0  0  0
    2.4236   -0.3300    0.1573 C   0  0  0  0  0  0  0  0  0  0  0  0
    2.9191    1.0001    0.2600 C   0  0  0  0  0  0  0  0  0  0  0  0
    4.2798    1.2473    0.0132 C   0  0  0  0  0  0  0  0  0  0  0  0
    5.1615    0.2132   -0.3497 C   0  0  0  0  0  0  0  0  0  0  0  0
    4.6661   -1.0833   -0.4537 C   0  0  0  0  0  0  0  0  0  0  0  0
    3.3264   -1.3512   -0.2060 C   0  0  0  0  0  0  0  0  0  0  0  0
    4.5061    2.6150    0.1878 N   0  0  0  0  0  0  0  0  0  0  0  0
    3.3324    3.2266    0.5472 C   0  0  0  0  0  0  0  0  0  0  0  0
    2.3451    2.2677    0.5538 C   0  0  0  0  0  0  0  0  0  0  0  0
    0.9877    2.4740    0.8410 N   0  0  0  0  0  0  0  0  0  0  0  0
    0.5540    3.5841    0.4577 N   0  0  0  0  0  0  0  0  0  0  0  0
   -0.7905    3.7185    0.7136 C   0  0  0  0  0  0  0  0  0  0  0  0
   -1.4890    5.0217    1.4938 S   0  0  0  0  0  0  0  0  0  0  0  0
   -1.6031    2.7303    0.2339 N   0  0  0  0  0  0  0  0  0  0  0  0
    3.2608    4.5284    0.8091 O   0  0  0  0  0  0  0  0  0  0  0  0
    5.8081    3.2579   -0.0051 C   0  0  3  0  0  0  0  0  0  0  0  0
    6.3502    4.1605    1.1255 C   0  0  3  0  0  0  0  0  0  0  0  0
    6.0660    5.6566    0.9415 C   0  0  3  0  0  0  0  0  0  0  0  0
    6.2921    6.0897   -0.5073 C   0  0  3  0  0  0  0  0  0  0  0  0
    5.4969    5.1856   -1.4541 C   0  0  3  0  0  0  0  0  0  0  0  0
    5.8932    3.8087   -1.3285 O   0  0  0  0  0  0  0  0  0  0  0  0
    5.7165    5.5782   -2.9209 C   0  0  0  0  0  0  0  0  0  0  0  0
    4.8634    4.7901   -3.7557 O   0  0  0  0  0  0  0  0  0  0  0  0
    7.7010    6.0058   -0.7901 O   0  0  0  0  0  0  0  0  0  0  0  0
    6.9432    6.4294    1.7887 O   0  0  0  0  0  0  0  0  0  0  0  0
    7.8014    4.0303    1.1787 O   0  0  0  0  0  0  0  0  0  0  0  0
    0.3880    0.0854    0.7899 H   0  0  0  0  0  0  0  0  0  0  0  0
    0.9234   -1.5619    1.0806 H   0  0  0  0  0  0  0  0  0  0  0  0
    0.5378   -1.0275   -0.5748 H   0  0  0  0  0  0  0  0  0  0  0  0
    6.2109    0.3964   -0.5619 H   0  0  0  0  0  0  0  0  0  0  0  0
    5.3355   -1.8916   -0.7392 H   0  0  0  0  0  0  0  0  0  0  0  0
    2.9733   -2.3768   -0.3026 H   0  0  0  0  0  0  0  0  0  0  0  0
   -1.1983    1.9419   -0.2504 H   0  0  0  0  0  0  0  0  0  0  0  0
   -2.6031    2.7730    0.3845 H   0  0  0  0  0  0  0  0  0  0  0  0
    2.3150    4.7124    0.9861 H   0  0  0  0  0  0  0  0  0  0  0  0
    6.5192    2.4273   -0.0419 H   0  0  0  0  0  0  0  0  0  0  0  0
    6.0049    3.8202    2.1071 H   0  0  0  0  0  0  0  0  0  0  0  0
    5.0489    5.9046    1.2437 H   0  0  0  0  0  0  0  0  0  0  0  0
    6.0065    7.1388   -0.6405 H   0  0  0  0  0  0  0  0  0  0  0  0
    4.4241    5.2559   -1.2490 H   0  0  0  0  0  0  0  0  0  0  0  0
    6.7462    5.3969   -3.2460 H   0  0  0  0  0  0  0  0  0  0  0  0
    5.4700    6.6302   -3.0937 H   0  0  0  0  0  0  0  0  0  0  0  0
    5.0150    3.8638   -3.4852 H   0  0  0  0  0  0  0  0  0  0  0  0
    8.1127    6.6617   -0.1882 H   0  0  0  0  0  0  0  0  0  0  0  0
    7.5974    5.7927    2.1476 H   0  0  0  0  0  0  0  0  0  0  0  0
    8.1334    4.3451    0.3075 H   0  0  0  0  0  0  0  0  0  0  0  0
  1  2  1  0  0  0  0
  1 28  1  0  0  0  0
  1 29  1  0  0  0  0
  1 30  1  0  0  0  0
  2  3  2  0  0  0  0
  2  7  1  0  0  0  0
  3  4  1  0  0  0  0
  3 10  1  0  0  0  0
  4  5  2  0  0  0  0
  4  8  1  0  0  0  0
  5  6  1  0  0  0  0
  5 31  1  0  0  0  0
  6  7  2  0  0  0  0
  6 32  1  0  0  0  0
  7 33  1  0  0  0  0
  8  9  1  0  0  0  0
  8 17  1  0  0  0  0
  9 10  2  0  0  0  0
  9 16  1  0  0  0  0
 10 11  1  0  0  0  0
 11 12  2  3  0  0  0
 12 13  1  0  0  0  0
 13 14  2  0  0  0  0
 13 15  1  0  0  0  0
 15 34  1  0  0  0  0
 15 35  1  0  0  0  0
 16 36  1  0  0  0  0
 17 18  1  0  0  0  0
 17 22  1  0  0  0  0
 17 37  1  0  0  0  0
 18 19  1  0  0  0  0
 18 27  1  0  0  0  0
 18 38  1  0  0  0  0
 19 20  1  0  0  0  0
 19 26  1  0  0  0  0
 19 39  1  0  0  0  0
 20 21  1  0  0  0  0
 20 25  1  0  0  0  0
 20 40  1  0  0  0  0
 21 22  1  0  0  0  0
 21 23  1  0  0  0  0
 21 41  1  0  0  0  0
 23 24  1  0  0  0  0
 23 42  1  0  0  0  0
 23 43  1  0  0  0  0
 24 44  1  0  0  0  0
 25 45  1  0  0  0  0
 26 46  1  0  0  0  0
 27 47  1  0  0  0  0
M  END
