
 OpenBabel10072620003D

 35 38  0  0  0  0  0  0  0  0999 V2000
    2.9334   -1.7273    0.7387 C   0  0  0  0  0  0  0  0  0  0  0  0
    3.3543   -0.4155    0.9448 C   0  0  0  0  0  0  0  0  0  0  0  0
    2.4618    0.6546    0.8273 C   0  0  0  0  0  0  0  0  0  0  0  0
    1.1281    0.3552    0.5253 C   0  0  0  0  0  0  0  0  0  0  0  0
    0.6752   -0.9479    0.3255 C   0  0  0  0  0  0  0  0  0  0  0  0
    1.5995   -2.0083    0.4241 C   0  0  0  0  0  0  0  0  0  0  0  0
   -0.7349   -0.8803    0.0950 C   0  0  0  0  0  0  0  0  0  0  0  0
   -1.1122    0.4603    0.1773 C   0  0  0  0  0  0  0  0  0  0  0  0
    0.0389    1.1839    0.3901 N   0  0  0  0  0  0  0  0  0  0  0  0
   -2.4468    0.8554    0.0844 C   0  0  0  0  0  0  0  0  0  0  0  0
   -3.4054   -0.0847   -0.0824 N   0  0  0  0  0  0  0  0  0  0  0  0
   -3.0368   -1.3786   -0.2027 C   0  0  0  0  0  0  0  0  0  0  0  0
   -1.7323   -1.8418   -0.1255 C   0  0  0  0  0  0  0  0  0  0  0  0
   -2.8642    2.2330    0.3241 C   0  0  0  0  0  0  0  0  0  0  0  0
   -2.5475    3.3374   -0.3762 C   0  0  0  0  0  0  0  0  0  0  0  0
   -1.7931    3.3965   -1.6324 C   0  0  0  0  0  0  0  0  0  0  0  0
   -2.1302    2.5665   -2.7097 C   0  0  0  0  0  0  0  0  0  0  0  0
   -1.4661    2.6829   -3.9313 C   0  0  0  0  0  0  0  0  0  0  0  0
   -0.4655    3.6395   -4.0807 C   0  0  0  0  0  0  0  0  0  0  0  0
   -0.1160    4.4729   -3.0192 C   0  0  0  0  0  0  0  0  0  0  0  0
   -0.7898    4.3594   -1.7997 C   0  0  0  0  0  0  0  0  0  0  0  0
    0.3228    3.8174   -5.5978 Cl  0  0  0  0  0  0  0  0  0  0  0  0
    3.6448   -2.5434    0.8356 H   0  0  0  0  0  0  0  0  0  0  0  0
    4.3924   -0.2209    1.2060 H   0  0  0  0  0  0  0  0  0  0  0  0
    2.7913    1.6753    0.9899 H   0  0  0  0  0  0  0  0  0  0  0  0
    1.2765   -3.0359    0.2843 H   0  0  0  0  0  0  0  0  0  0  0  0
    0.0663    2.1900    0.4717 H   0  0  0  0  0  0  0  0  0  0  0  0
   -3.8603   -2.0732   -0.3489 H   0  0  0  0  0  0  0  0  0  0  0  0
   -1.5046   -2.8977   -0.2020 H   0  0  0  0  0  0  0  0  0  0  0  0
   -3.5325    2.3345    1.1755 H   0  0  0  0  0  0  0  0  0  0  0  0
   -2.9306    4.2965   -0.0305 H   0  0  0  0  0  0  0  0  0  0  0  0
   -2.9320    1.8363   -2.6128 H   0  0  0  0  0  0  0  0  0  0  0  0
   -1.7453    2.0369   -4.7596 H   0  0  0  0  0  0  0  0  0  0  0  0
    0.6648    5.2201   -3.1404 H   0  0  0  0  0  0  0  0  0  0  0  0
   -0.5330    5.0339   -0.9868 H   0  0  0  0  0  0  0  0  0  0  0  0
  1  2  2  0  0  0  0
  1  6  1  0  0  0  0
  1 23  1  0  0  0  0
  2  3  1  0  0  0  0
  2 24  1  0  0  0  0
  3  4  2  0  0  0  0
  3 25  1  0  0  0  0
  4  5  1  0  0  0  0
  4  9  1  0  0  0  0
  5  6  2  0  0  0  0
  5  7  1  0  0  0  0
  6 26  1  0  0  0  0
  7  8  2  0  0  0  0
  7 13  1  0  0  0  0
  8  9  1  0  0  0  0
  8 10  1  0  0  0  0
  9 27  1  0  0  0  0
 10 11  2  0  0  0  0
 10 14  1  0  0  0  0
 11 12  1  0  0  0  0
 12 13  2  0  0  0  0
 12 28  1  0  0  0  0
 13 29  1  0  0  0  0
 14 15  2  0  0  0  0
 14 30  1  0  0  0  0
 15 16  1  0  0  0  0
 15 31  1  0  0  0  0
 16 17  2  0  0  0  0
 16 21  1  0  0  0  0
 17 18  1  0  0  0  0
 17 32  1  0  0  0  0
 18 19  2  0  0  0  0
 18 33  1  0  0  0  0
 19 20  1  0  0  0  0
 19 22  1  0  0  0  0
 20 21  2  0  0  0  0
 20 34  1  0  0  0  0
 21 35  1  0  0  0  0
M  END
