
 OpenBabel10072616343D

 65 69  0  0  0  0  0  0  0  0999 V2000
    6.8255    2.6878    2.8645 C   0  0  0  0  0  0  0  0  0  0  0  0
    6.0748    3.0757    1.5979 C   0  0  0  0  0  0  0  0  0  0  0  0
    5.9241    1.8989    0.7047 N   0  0  0  0  0  0  0  0  0  0  0  0
    7.1054    1.3542    0.0831 C   0  0  0  0  0  0  0  0  0  0  0  0
    7.2477   -0.0344    0.0263 C   0  0  0  0  0  0  0  0  0  0  0  0
    8.3298   -0.6077   -0.6414 C   0  0  0  0  0  0  0  0  0  0  0  0
    9.2744    0.2077   -1.2634 C   0  0  0  0  0  0  0  0  0  0  0  0
    9.1504    1.6010   -1.2145 C   0  0  0  0  0  0  0  0  0  0  0  0
    8.0554    2.1669   -0.5450 C   0  0  0  0  0  0  0  0  0  0  0  0
   10.1286    2.4738   -1.9469 C   0  0  0  0  0  0  0  0  0  0  0  0
    4.4732    1.7996   -0.2028 S   0  0  0  0  0  0  0  0  0  0  0  0
    4.4140    0.5495   -0.9310 O   0  0  0  0  0  0  0  0  0  0  0  0
    3.3814    2.1823    0.6735 O   0  0  0  0  0  0  0  0  0  0  0  0
    4.6252    3.0949   -1.4232 C   0  0  0  0  0  0  0  0  0  0  0  0
    5.4568    2.9153   -2.5308 C   0  0  0  0  0  0  0  0  0  0  0  0
    5.5134    3.9150   -3.5066 C   0  0  0  0  0  0  0  0  0  0  0  0
    4.6896    5.0518   -3.4263 C   0  0  0  0  0  0  0  0  0  0  0  0
    3.8750    5.2228   -2.3040 C   0  0  0  0  0  0  0  0  0  0  0  0
    3.8322    4.2431   -1.3084 C   0  0  0  0  0  0  0  0  0  0  0  0
    4.7517    6.0273   -4.4300 N   0  0  0  0  0  0  0  0  0  0  0  0
    5.4745    5.7946   -5.5741 C   0  0  0  0  0  0  0  0  0  0  0  0
    6.2925    4.7466   -5.7811 C   0  0  0  0  0  0  0  0  0  0  0  0
    6.4625    3.8002   -4.6473 C   0  0  0  0  0  0  0  0  0  0  0  0
    7.3502    2.9573   -4.6143 O   0  0  0  0  0  0  0  0  0  0  0  0
    7.0034    4.7051   -7.0851 C   0  0  0  0  0  0  0  0  0  0  0  0
    7.5122    5.7508   -7.5024 O   0  0  0  0  0  0  0  0  0  0  0  0
    6.9958    3.5460   -7.8480 N   0  0  0  0  0  0  0  0  0  0  0  0
    6.5209    2.2213   -7.4482 C   0  0  0  0  0  0  0  0  0  0  0  0
    7.7099    1.2769   -7.2749 C   0  0  0  0  0  0  0  0  0  0  0  0
    8.5689    1.2362   -8.5450 C   0  0  0  0  0  0  0  0  0  0  0  0
    8.9437    2.6456   -9.0176 C   0  0  0  0  0  0  0  0  0  0  0  0
    7.7113    3.5356   -9.1227 C   0  0  0  0  0  0  0  0  0  0  0  0
    9.7827    0.5082   -8.2774 O   0  0  0  0  0  0  0  0  0  0  0  0
    9.5935   -0.7649   -8.8895 C   0  0  0  0  0  0  0  0  0  0  0  0
    8.7268   -0.4460  -10.0737 C   0  0  0  0  0  0  0  0  0  0  0  0
    7.8338    0.5532   -9.5797 O   0  0  0  0  0  0  0  0  0  0  0  0
    6.8605    3.5345    3.5578 H   0  0  0  0  0  0  0  0  0  0  0  0
    7.8556    2.3868    2.6491 H   0  0  0  0  0  0  0  0  0  0  0  0
    6.3289    1.8536    3.3716 H   0  0  0  0  0  0  0  0  0  0  0  0
    6.5798    3.9042    1.0913 H   0  0  0  0  0  0  0  0  0  0  0  0
    5.0938    3.4484    1.9065 H   0  0  0  0  0  0  0  0  0  0  0  0
    6.5056   -0.6815    0.4878 H   0  0  0  0  0  0  0  0  0  0  0  0
    8.4262   -1.6894   -0.6940 H   0  0  0  0  0  0  0  0  0  0  0  0
   10.1012   -0.2493   -1.8032 H   0  0  0  0  0  0  0  0  0  0  0  0
    7.9418    3.2463   -0.5469 H   0  0  0  0  0  0  0  0  0  0  0  0
   11.1341    2.0405   -1.9136 H   0  0  0  0  0  0  0  0  0  0  0  0
   10.1874    3.4683   -1.4908 H   0  0  0  0  0  0  0  0  0  0  0  0
    9.8225    2.5832   -2.9922 H   0  0  0  0  0  0  0  0  0  0  0  0
    6.0470    2.0079   -2.6433 H   0  0  0  0  0  0  0  0  0  0  0  0
    3.2568    6.1108   -2.1993 H   0  0  0  0  0  0  0  0  0  0  0  0
    3.1630    4.3743   -0.4596 H   0  0  0  0  0  0  0  0  0  0  0  0
    4.0085    6.7170   -4.4794 H   0  0  0  0  0  0  0  0  0  0  0  0
    5.3356    6.5607   -6.3355 H   0  0  0  0  0  0  0  0  0  0  0  0
    5.8580    1.8572   -8.2432 H   0  0  0  0  0  0  0  0  0  0  0  0
    5.9117    2.2589   -6.5464 H   0  0  0  0  0  0  0  0  0  0  0  0
    7.3435    0.2733   -7.0284 H   0  0  0  0  0  0  0  0  0  0  0  0
    8.3384    1.5960   -6.4356 H   0  0  0  0  0  0  0  0  0  0  0  0
    9.4451    2.6022   -9.9920 H   0  0  0  0  0  0  0  0  0  0  0  0
    9.6584    3.0908   -8.3132 H   0  0  0  0  0  0  0  0  0  0  0  0
    7.0203    3.1657   -9.8905 H   0  0  0  0  0  0  0  0  0  0  0  0
    8.0101    4.5437   -9.4257 H   0  0  0  0  0  0  0  0  0  0  0  0
    9.0804   -1.4171   -8.1752 H   0  0  0  0  0  0  0  0  0  0  0  0
   10.5533   -1.2102   -9.1629 H   0  0  0  0  0  0  0  0  0  0  0  0
    8.1718   -1.3085  -10.4499 H   0  0  0  0  0  0  0  0  0  0  0  0
    9.3095   -0.0065  -10.8896 H   0  0  0  0  0  0  0  0  0  0  0  0
  1  2  1  0  0  0  0
  1 37  1  0  0  0  0
  1 38  1  0  0  0  0
  1 39  1  0  0  0  0
  2  3  1  0  0  0  0
  2 40  1  0  0  0  0
  2 41  1  0  0  0  0
  3  4  1  0  0  0  0
  3 11  1  0  0  0  0
  4  5  2  0  0  0  0
  4  9  1  0  0  0  0
  5  6  1  0  0  0  0
  5 42  1  0  0  0  0
  6  7  2  0  0  0  0
  6 43  1  0  0  0  0
  7  8  1  0  0  0  0
  7 44  1  0  0  0  0
  8  9  2  0  0  0  0
  8 10  1  0  0  0  0
  9 45  1  0  0  0  0
 10 46  1  0  0  0  0
 10 47  1  0  0  0  0
 10 48  1  0  0  0  0
 11 12  2  0  0  0  0
 11 13  2  0  0  0  0
 11 14  1  0  0  0  0
 14 15  2  0  0  0  0
 14 19  1  0  0  0  0
 15 16  1  0  0  0  0
 15 49  1  0  0  0  0
 16 17  2  0  0  0  0
 16 23  1  0  0  0  0
 17 18  1  0  0  0  0
 17 20  1  0  0  0  0
 18 19  2  0  0  0  0
 18 50  1  0  0  0  0
 19 51  1  0  0  0  0
 20 21  1  0  0  0  0
 20 52  1  0  0  0  0
 21 22  2  0  0  0  0
 21 53  1  0  0  0  0
 22 23  1  0  0  0  0
 22 25  1  0  0  0  0
 23 24  2  0  0  0  0
 25 26  2  0  0  0  0
 25 27  1  0  0  0  0
 27 28  1  0  0  0  0
 27 32  1  0  0  0  0
 28 29  1  0  0  0  0
 28 54  1  0  0  0  0
 28 55  1  0  0  0  0
 29 30  1  0  0  0  0
 29 56  1  0  0  0  0
 29 57  1  0  0  0  0
 30 31  1  0  0  0  0
 30 33  1  0  0  0  0
 30 36  1  0  0  0  0
 31 32  1  0  0  0  0
 31 58  1  0  0  0  0
 31 59  1  0  0  0  0
 32 60  1  0  0  0  0
 32 61  1  0  0  0  0
 33 34  1  0  0  0  0
 34 35  1  0  0  0  0
 34 62  1  0  0  0  0
 34 63  1  0  0  0  0
 35 36  1  0  0  0  0
 35 64  1  0  0  0  0
 35 65  1  0  0  0  0
M  END
