
 OpenBabel10072620163D

 34 35  0  0  0  0  0  0  0  0999 V2000
    4.1317   -0.8010   -0.7103 C   0  0  0  0  0  0  0  0  0  0  0  0
    3.1150   -0.0352   -0.0779 O   0  0  0  0  0  0  0  0  0  0  0  0
    3.5055    1.0110    0.7141 C   0  0  0  0  0  0  0  0  0  0  0  0
    2.5347    1.5778    1.5567 C   0  0  0  0  0  0  0  0  0  0  0  0
    2.8528    2.6503    2.3957 C   0  0  0  0  0  0  0  0  0  0  0  0
    4.1420    3.1872    2.3789 C   0  0  0  0  0  0  0  0  0  0  0  0
    5.1185    2.6323    1.5459 C   0  0  0  0  0  0  0  0  0  0  0  0
    4.7982    1.5495    0.7184 C   0  0  0  0  0  0  0  0  0  0  0  0
    4.4501    4.3306    3.2759 C   0  0  0  0  0  0  0  0  0  0  0  0
    3.8733    4.4169    4.3518 O   0  0  0  0  0  0  0  0  0  0  0  0
    5.2498    5.3180    2.7086 N   0  0  0  0  0  0  0  0  0  0  0  0
    6.1433    6.1973    3.3404 C   0  0  0  0  0  0  0  0  0  0  0  0
    6.6006    6.0896    4.9423 S   0  0  0  0  0  0  0  0  0  0  0  0
    6.5471    7.1583    2.4123 N   0  0  0  0  0  0  0  0  0  0  0  0
    7.6089    8.0981    2.4350 C   0  0  0  0  0  0  0  0  0  0  0  0
    7.5054    9.2337    1.6046 C   0  0  0  0  0  0  0  0  0  0  0  0
    8.5183   10.1930    1.5555 C   0  0  0  0  0  0  0  0  0  0  0  0
    9.6602   10.0148    2.3275 C   0  0  0  0  0  0  0  0  0  0  0  0
    9.7988    8.8850    3.1299 C   0  0  0  0  0  0  0  0  0  0  0  0
    8.7801    7.9251    3.1760 C   0  0  0  0  0  0  0  0  0  0  0  0
   10.9179   11.1863    2.2756 Cl  0  0  0  0  0  0  0  0  0  0  0  0
    6.1053    9.4813    0.6132 Cl  0  0  0  0  0  0  0  0  0  0  0  0
    0.5636    0.8572    1.6231 I   0  0  0  0  0  0  0  0  0  0  0  0
    3.6529   -1.6661   -1.1789 H   0  0  0  0  0  0  0  0  0  0  0  0
    4.8611   -1.1721    0.0177 H   0  0  0  0  0  0  0  0  0  0  0  0
    4.6201   -0.2260   -1.5033 H   0  0  0  0  0  0  0  0  0  0  0  0
    2.1049    3.0749    3.0629 H   0  0  0  0  0  0  0  0  0  0  0  0
    6.1399    3.0050    1.5510 H   0  0  0  0  0  0  0  0  0  0  0  0
    5.5849    1.1447    0.0893 H   0  0  0  0  0  0  0  0  0  0  0  0
    5.4004    5.2434    1.7139 H   0  0  0  0  0  0  0  0  0  0  0  0
    5.8263    7.3947    1.7349 H   0  0  0  0  0  0  0  0  0  0  0  0
    8.4164   11.0686    0.9207 H   0  0  0  0  0  0  0  0  0  0  0  0
   10.7008    8.7365    3.7195 H   0  0  0  0  0  0  0  0  0  0  0  0
    8.9530    7.0397    3.7792 H   0  0  0  0  0  0  0  0  0  0  0  0
  1  2  1  0  0  0  0
  1 24  1  0  0  0  0
  1 25  1  0  0  0  0
  1 26  1  0  0  0  0
  2  3  1  0  0  0  0
  3  4  2  0  0  0  0
  3  8  1  0  0  0  0
  4  5  1  0  0  0  0
  4 23  1  0  0  0  0
  5  6  2  0  0  0  0
  5 27  1  0  0  0  0
  6  7  1  0  0  0  0
  6  9  1  0  0  0  0
  7  8  2  0  0  0  0
  7 28  1  0  0  0  0
  8 29  1  0  0  0  0
  9 10  2  0  0  0  0
  9 11  1  0  0  0  0
 11 12  1  0  0  0  0
 11 30  1  0  0  0  0
 12 13  2  0  0  0  0
 12 14  1  0  0  0  0
 14 15  1  0  0  0  0
 14 31  1  0  0  0  0
 15 16  2  0  0  0  0
 15 20  1  0  0  0  0
 16 17  1  0  0  0  0
 16 22  1  0  0  0  0
 17 18  2  0  0  0  0
 17 32  1  0  0  0  0
 18 19  1  0  0  0  0
 18 21  1  0  0  0  0
 19 20  2  0  0  0  0
 19 33  1  0  0  0  0
 20 34  1  0  0  0  0
M  END
