
 OpenBabel10072619593D

 40 42  0  0  0  0  0  0  0  0999 V2000
    3.5314    1.0884    0.9420 C   0  0  0  0  0  0  0  0  0  0  0  0
    2.9708    0.9916   -0.3628 O   0  0  0  0  0  0  0  0  0  0  0  0
    3.5629    0.1239   -1.2343 C   0  0  0  0  0  0  0  0  0  0  0  0
    4.6728   -0.6756   -0.9745 C   0  0  0  0  0  0  0  0  0  0  0  0
    5.1781   -1.5188   -1.9714 C   0  0  0  0  0  0  0  0  0  0  0  0
    4.5765   -1.5735   -3.2368 C   0  0  0  0  0  0  0  0  0  0  0  0
    3.4584   -0.7739   -3.4949 C   0  0  0  0  0  0  0  0  0  0  0  0
    2.9625    0.0690   -2.4947 C   0  0  0  0  0  0  0  0  0  0  0  0
    5.1652   -2.4887   -4.2591 C   0  0  0  0  0  0  0  0  0  0  0  0
    6.1650   -3.1516   -3.9885 O   0  0  0  0  0  0  0  0  0  0  0  0
    4.5064   -2.5876   -5.6140 C   0  0  0  0  0  0  0  0  0  0  0  0
    5.2537   -3.5337   -6.4824 N   0  3  0  0  0  0  0  0  0  0  0  0
    6.1486   -3.0643   -7.3804 C   0  0  0  0  0  0  0  0  0  0  0  0
    6.8398   -3.9365   -8.2168 C   0  0  0  0  0  0  0  0  0  0  0  0
    6.6269   -5.3156   -8.1330 C   0  0  0  0  0  0  0  0  0  0  0  0
    5.7187   -5.7702   -7.1725 C   0  0  0  0  0  0  0  0  0  0  0  0
    5.0505   -4.8654   -6.3525 C   0  0  0  0  0  0  0  0  0  0  0  0
    7.3383   -6.2508   -9.0194 C   0  0  0  0  0  0  0  0  0  0  0  0
    8.7368   -6.2431   -9.1102 C   0  0  0  0  0  0  0  0  0  0  0  0
    9.3627   -7.1413   -9.9620 C   0  0  0  0  0  0  0  0  0  0  0  0
    8.7000   -8.0328  -10.7239 N   0  0  0  0  0  0  0  0  0  0  0  0
    7.3562   -8.0349  -10.6303 C   0  0  0  0  0  0  0  0  0  0  0  0
    6.6416   -7.1779   -9.8061 C   0  0  0  0  0  0  0  0  0  0  0  0
    2.9301    1.8031    1.5124 H   0  0  0  0  0  0  0  0  0  0  0  0
    4.5567    1.4703    0.9017 H   0  0  0  0  0  0  0  0  0  0  0  0
    3.4882    0.1259    1.4621 H   0  0  0  0  0  0  0  0  0  0  0  0
    5.1695   -0.6669   -0.0084 H   0  0  0  0  0  0  0  0  0  0  0  0
    6.0489   -2.1324   -1.7422 H   0  0  0  0  0  0  0  0  0  0  0  0
    2.9393   -0.7657   -4.4477 H   0  0  0  0  0  0  0  0  0  0  0  0
    2.0938    0.6959   -2.6933 H   0  0  0  0  0  0  0  0  0  0  0  0
    4.4942   -1.6136   -6.1131 H   0  0  0  0  0  0  0  0  0  0  0  0
    3.4853   -2.9720   -5.5231 H   0  0  0  0  0  0  0  0  0  0  0  0
    6.3068   -1.9906   -7.4289 H   0  0  0  0  0  0  0  0  0  0  0  0
    7.5408   -3.5301   -8.9448 H   0  0  0  0  0  0  0  0  0  0  0  0
    5.5395   -6.8368   -7.0419 H   0  0  0  0  0  0  0  0  0  0  0  0
    4.3587   -5.1981   -5.5837 H   0  0  0  0  0  0  0  0  0  0  0  0
    9.3453   -5.5640   -8.5212 H   0  0  0  0  0  0  0  0  0  0  0  0
   10.4456   -7.1721  -10.0515 H   0  0  0  0  0  0  0  0  0  0  0  0
    6.8516   -8.7671  -11.2555 H   0  0  0  0  0  0  0  0  0  0  0  0
    5.5579   -7.2373   -9.7977 H   0  0  0  0  0  0  0  0  0  0  0  0
  1  2  1  0  0  0  0
  1 24  1  0  0  0  0
  1 25  1  0  0  0  0
  1 26  1  0  0  0  0
  2  3  1  0  0  0  0
  3  4  2  0  0  0  0
  3  8  1  0  0  0  0
  4  5  1  0  0  0  0
  4 27  1  0  0  0  0
  5  6  2  0  0  0  0
  5 28  1  0  0  0  0
  6  7  1  0  0  0  0
  6  9  1  0  0  0  0
  7  8  2  0  0  0  0
  7 29  1  0  0  0  0
  8 30  1  0  0  0  0
  9 10  2  0  0  0  0
  9 11  1  0  0  0  0
 11 12  1  0  0  0  0
 11 31  1  0  0  0  0
 11 32  1  0  0  0  0
 12 13  2  0  0  0  0
 12 17  1  0  0  0  0
 13 14  1  0  0  0  0
 13 33  1  0  0  0  0
 14 15  2  0  0  0  0
 14 34  1  0  0  0  0
 15 16  1  0  0  0  0
 15 18  1  0  0  0  0
 16 17  2  0  0  0  0
 16 35  1  0  0  0  0
 17 36  1  0  0  0  0
 18 19  2  0  0  0  0
 18 23  1  0  0  0  0
 19 20  1  0  0  0  0
 19 37  1  0  0  0  0
 20 21  2  0  0  0  0
 20 38  1  0  0  0  0
 21 22  1  0  0  0  0
 22 23  2  0  0  0  0
 22 39  1  0  0  0  0
 23 40  1  0  0  0  0
M  CHG  1  12   1
M  END
