
 OpenBabel10072620223D

 41 42  0  0  0  0  0  0  0  0999 V2000
    0.9668   -0.0126   -4.3281 C   0  0  0  0  0  0  0  0  0  0  0  0
    1.6415    1.1137   -3.5500 C   0  0  0  0  0  0  0  0  0  0  0  0
    1.7625    0.7719   -2.0687 C   0  0  0  0  0  0  0  0  0  0  0  0
    2.4856   -0.5650   -1.8527 C   0  0  0  0  0  0  0  0  0  0  0  0
    1.7979   -1.6928   -2.6340 C   0  0  0  0  0  0  0  0  0  0  0  0
    1.6706   -1.3512   -4.1176 C   0  0  0  0  0  0  0  0  0  0  0  0
    2.4811   -0.8621   -0.4227 N   0  0  0  0  0  0  0  0  0  0  0  0
    3.2352   -1.8280    0.1658 C   0  0  0  0  0  0  0  0  0  0  0  0
    2.9566   -2.5537    1.1898 N   0  0  0  0  0  0  0  0  0  0  0  0
    1.6713   -2.4295    1.8746 C   0  0  0  0  0  0  0  0  0  0  0  0
    1.7443   -1.2868    2.8953 C   0  0  0  0  0  0  0  0  0  0  0  0
    0.4934   -1.2267    3.7691 C   0  0  0  0  0  0  0  0  0  0  0  0
    0.2331   -2.5586    4.4656 C   0  0  0  0  0  0  0  0  0  0  0  0
    0.1425   -3.6983    3.4556 C   0  0  0  0  0  0  0  0  0  0  0  0
    1.3900   -3.7662    2.5764 C   0  0  0  0  0  0  0  0  0  0  0  0
    4.4539   -1.9954   -0.3946 N   0  0  0  0  0  0  0  0  0  0  0  0
    0.9550    0.2362   -5.3954 H   0  0  0  0  0  0  0  0  0  0  0  0
   -0.0787   -0.1001   -4.0047 H   0  0  0  0  0  0  0  0  0  0  0  0
    1.0631    2.0376   -3.6646 H   0  0  0  0  0  0  0  0  0  0  0  0
    2.6400    1.3060   -3.9624 H   0  0  0  0  0  0  0  0  0  0  0  0
    0.7595    0.7356   -1.6228 H   0  0  0  0  0  0  0  0  0  0  0  0
    2.3024    1.5725   -1.5482 H   0  0  0  0  0  0  0  0  0  0  0  0
    3.5146   -0.4502   -2.2155 H   0  0  0  0  0  0  0  0  0  0  0  0
    0.7995   -1.8846   -2.2193 H   0  0  0  0  0  0  0  0  0  0  0  0
    2.3593   -2.6293   -2.5270 H   0  0  0  0  0  0  0  0  0  0  0  0
    1.1087   -2.1417   -4.6287 H   0  0  0  0  0  0  0  0  0  0  0  0
    2.6694   -1.3198   -4.5720 H   0  0  0  0  0  0  0  0  0  0  0  0
    1.5583   -0.7699   -0.0178 H   0  0  0  0  0  0  0  0  0  0  0  0
    0.8472   -2.2513    1.1713 H   0  0  0  0  0  0  0  0  0  0  0  0
    1.8678   -0.3275    2.3798 H   0  0  0  0  0  0  0  0  0  0  0  0
    2.6295   -1.4088    3.5331 H   0  0  0  0  0  0  0  0  0  0  0  0
   -0.3725   -0.9671    3.1470 H   0  0  0  0  0  0  0  0  0  0  0  0
    0.6029   -0.4328    4.5167 H   0  0  0  0  0  0  0  0  0  0  0  0
   -0.6988   -2.4961    5.0390 H   0  0  0  0  0  0  0  0  0  0  0  0
    1.0370   -2.7640    5.1835 H   0  0  0  0  0  0  0  0  0  0  0  0
   -0.7424   -3.5539    2.8231 H   0  0  0  0  0  0  0  0  0  0  0  0
    0.0086   -4.6495    3.9839 H   0  0  0  0  0  0  0  0  0  0  0  0
    1.2639   -4.5566    1.8265 H   0  0  0  0  0  0  0  0  0  0  0  0
    2.2520   -4.0560    3.1913 H   0  0  0  0  0  0  0  0  0  0  0  0
    4.9228   -1.1140   -0.5558 H   0  0  0  0  0  0  0  0  0  0  0  0
    5.0137   -2.5967    0.2028 H   0  0  0  0  0  0  0  0  0  0  0  0
  1  2  1  0  0  0  0
  1  6  1  0  0  0  0
  1 17  1  0  0  0  0
  1 18  1  0  0  0  0
  2  3  1  0  0  0  0
  2 19  1  0  0  0  0
  2 20  1  0  0  0  0
  3  4  1  0  0  0  0
  3 21  1  0  0  0  0
  3 22  1  0  0  0  0
  4  5  1  0  0  0  0
  4  7  1  0  0  0  0
  4 23  1  0  0  0  0
  5  6  1  0  0  0  0
  5 24  1  0  0  0  0
  5 25  1  0  0  0  0
  6 26  1  0  0  0  0
  6 27  1  0  0  0  0
  7  8  1  0  0  0  0
  7 28  1  0  0  0  0
  8  9  2  3  0  0  0
  8 16  1  0  0  0  0
  9 10  1  0  0  0  0
 10 11  1  0  0  0  0
 10 15  1  0  0  0  0
 10 29  1  0  0  0  0
 11 12  1  0  0  0  0
 11 30  1  0  0  0  0
 11 31  1  0  0  0  0
 12 13  1  0  0  0  0
 12 32  1  0  0  0  0
 12 33  1  0  0  0  0
 13 14  1  0  0  0  0
 13 34  1  0  0  0  0
 13 35  1  0  0  0  0
 14 15  1  0  0  0  0
 14 36  1  0  0  0  0
 14 37  1  0  0  0  0
 15 38  1  0  0  0  0
 15 39  1  0  0  0  0
 16 40  1  0  0  0  0
 16 41  1  0  0  0  0
M  END
