
 OpenBabel10072619523D

 34 34  0  0  0  0  0  0  0  0999 V2000
    1.1083   -0.8581   -0.2317 C   0  0  0  0  0  0  0  0  0  0  0  0
    2.4432   -0.3679   -0.1877 O   0  0  0  0  0  0  0  0  0  0  0  0
    3.0980   -0.4176    1.0153 C   0  0  0  0  0  0  0  0  0  0  0  0
    2.6846   -1.1940    2.0981 C   0  0  0  0  0  0  0  0  0  0  0  0
    3.4360   -1.2059    3.2812 C   0  0  0  0  0  0  0  0  0  0  0  0
    4.6268   -0.4725    3.3784 C   0  0  0  0  0  0  0  0  0  0  0  0
    5.0607    0.2972    2.3000 C   0  0  0  0  0  0  0  0  0  0  0  0
    4.2830    0.3352    1.1282 C   0  0  0  0  0  0  0  0  0  0  0  0
    4.7669    1.0748    0.0726 O   0  0  0  0  0  0  0  0  0  0  0  0
    3.9204    2.1823   -0.2257 C   0  0  0  0  0  0  0  0  0  0  0  0
    6.1991    1.0618    2.2939 O   0  0  0  0  0  0  0  0  0  0  0  0
    7.1075    0.8855    3.3716 C   0  0  0  0  0  0  0  0  0  0  0  0
    3.0369   -2.0463    4.4363 C   0  0  0  0  0  0  0  0  0  0  0  0
    3.8845   -2.5163    5.1919 O   0  0  0  0  0  0  0  0  0  0  0  0
    1.6862   -2.2571    4.6115 N   0  0  0  0  0  0  0  0  0  0  0  0
    1.2934   -3.1657    5.6005 N   0  0  0  0  0  0  0  0  0  0  0  0
    0.1388   -3.8905    5.4492 C   0  0  0  0  0  0  0  0  0  0  0  0
   -1.0566   -3.6198    4.3200 S   0  0  0  0  0  0  0  0  0  0  0  0
    0.0058   -4.8907    6.3592 N   0  0  0  0  0  0  0  0  0  0  0  0
    0.6946   -0.6119   -1.2147 H   0  0  0  0  0  0  0  0  0  0  0  0
    0.4813   -0.3728    0.5244 H   0  0  0  0  0  0  0  0  0  0  0  0
    1.0853   -1.9471   -0.1237 H   0  0  0  0  0  0  0  0  0  0  0  0
    1.8138   -1.8352    2.0138 H   0  0  0  0  0  0  0  0  0  0  0  0
    5.1936   -0.5248    4.3042 H   0  0  0  0  0  0  0  0  0  0  0  0
    4.5581    3.0215   -0.5194 H   0  0  0  0  0  0  0  0  0  0  0  0
    3.3059    2.5026    0.6251 H   0  0  0  0  0  0  0  0  0  0  0  0
    3.2827    1.9341   -1.0784 H   0  0  0  0  0  0  0  0  0  0  0  0
    8.0031    1.4749    3.1538 H   0  0  0  0  0  0  0  0  0  0  0  0
    7.4133   -0.1614    3.4646 H   0  0  0  0  0  0  0  0  0  0  0  0
    6.6819    1.2608    4.3080 H   0  0  0  0  0  0  0  0  0  0  0  0
    0.9508   -1.8473    4.0422 H   0  0  0  0  0  0  0  0  0  0  0  0
    2.0757   -3.5806    6.1082 H   0  0  0  0  0  0  0  0  0  0  0  0
    0.6242   -4.9780    7.1533 H   0  0  0  0  0  0  0  0  0  0  0  0
   -0.8611   -5.4137    6.3797 H   0  0  0  0  0  0  0  0  0  0  0  0
  1  2  1  0  0  0  0
  1 20  1  0  0  0  0
  1 21  1  0  0  0  0
  1 22  1  0  0  0  0
  2  3  1  0  0  0  0
  3  4  2  0  0  0  0
  3  8  1  0  0  0  0
  4  5  1  0  0  0  0
  4 23  1  0  0  0  0
  5  6  2  0  0  0  0
  5 13  1  0  0  0  0
  6  7  1  0  0  0  0
  6 24  1  0  0  0  0
  7  8  2  0  0  0  0
  7 11  1  0  0  0  0
  8  9  1  0  0  0  0
  9 10  1  0  0  0  0
 10 25  1  0  0  0  0
 10 26  1  0  0  0  0
 10 27  1  0  0  0  0
 11 12  1  0  0  0  0
 12 28  1  0  0  0  0
 12 29  1  0  0  0  0
 12 30  1  0  0  0  0
 13 14  2  0  0  0  0
 13 15  1  0  0  0  0
 15 16  1  0  0  0  0
 15 31  1  0  0  0  0
 16 17  1  0  0  0  0
 16 32  1  0  0  0  0
 17 18  2  0  0  0  0
 17 19  1  0  0  0  0
 19 33  1  0  0  0  0
 19 34  1  0  0  0  0
M  END
