
 OpenBabel10072619443D

 74 78  0  0  1  0  0  0  0  0999 V2000
    0.8780    1.2610   -1.7815 C   0  0  0  0  0  0  0  0  0  0  0  0
    0.0280    0.3940   -2.4644 C   0  0  0  0  0  0  0  0  0  0  0  0
   -1.1754   -0.0162   -1.8831 C   0  0  0  0  0  0  0  0  0  0  0  0
   -1.5417    0.4259   -0.6093 C   0  0  0  0  0  0  0  0  0  0  0  0
   -0.6685    1.2990    0.0674 C   0  0  0  0  0  0  0  0  0  0  0  0
    0.5293    1.7179   -0.5140 C   0  0  0  0  0  0  0  0  0  0  0  0
   -2.8874    0.1430    0.0168 C   0  0  0  0  0  0  0  0  0  0  0  0
   -3.6717   -1.0065   -0.4794 N   0  0  0  0  0  0  0  0  0  0  0  0
   -3.7533   -2.1458    0.4723 C   0  0  1  0  0  0  0  0  0  0  0  0
   -5.1945   -2.3009    0.9862 C   0  0  1  0  0  0  0  0  0  0  0  0
   -6.0700   -3.1477    0.0679 C   0  0  2  0  0  0  0  0  0  0  0  0
   -5.9248   -2.8015   -1.4325 C   0  0  2  0  0  0  0  0  0  0  0  0
   -5.7506   -1.3496   -1.6807 N   0  0  0  0  0  0  0  0  0  0  0  0
   -4.5624   -0.6524   -1.4949 C   0  0  0  0  0  0  0  0  0  0  0  0
   -4.3489    0.3690   -2.1583 O   0  0  0  0  0  0  0  0  0  0  0  0
   -6.8016   -0.5957   -2.3816 C   0  0  0  0  0  0  0  0  0  0  0  0
   -7.5170    0.3915   -1.4861 C   0  0  0  0  0  0  0  0  0  0  0  0
   -7.1652    1.7498   -1.5020 C   0  0  0  0  0  0  0  0  0  0  0  0
   -7.8534    2.6671   -0.7072 C   0  0  0  0  0  0  0  0  0  0  0  0
   -8.8936    2.2404    0.1153 C   0  0  0  0  0  0  0  0  0  0  0  0
   -9.2388    0.8902    0.1549 C   0  0  0  0  0  0  0  0  0  0  0  0
   -8.5525   -0.0294   -0.6404 C   0  0  0  0  0  0  0  0  0  0  0  0
   -7.0188   -3.5182   -2.2706 C   0  0  0  0  0  0  0  0  0  0  0  0
   -7.0356   -5.0246   -2.1092 C   0  0  0  0  0  0  0  0  0  0  0  0
   -8.0772   -5.6294   -1.3835 C   0  0  0  0  0  0  0  0  0  0  0  0
   -8.1110   -7.0125   -1.2061 C   0  0  0  0  0  0  0  0  0  0  0  0
   -7.1062   -7.8093   -1.7455 C   0  0  0  0  0  0  0  0  0  0  0  0
   -6.0609   -7.2243   -2.4645 C   0  0  0  0  0  0  0  0  0  0  0  0
   -6.0318   -5.8400   -2.6404 C   0  0  0  0  0  0  0  0  0  0  0  0
   -5.0101   -5.2576   -3.3346 O   0  0  0  0  0  0  0  0  0  0  0  0
   -7.4322   -3.0102    0.5154 O   0  0  0  0  0  0  0  0  0  0  0  0
   -5.2365   -2.8853    2.3016 O   0  0  0  0  0  0  0  0  0  0  0  0
   -3.0650   -3.4741    0.0463 C   0  0  0  0  0  0  0  0  0  0  0  0
   -1.6046   -3.3785   -0.3342 C   0  0  0  0  0  0  0  0  0  0  0  0
   -1.2274   -3.5515   -1.6782 C   0  0  0  0  0  0  0  0  0  0  0  0
    0.1134   -3.4881   -2.0606 C   0  0  0  0  0  0  0  0  0  0  0  0
    1.0989   -3.2650   -1.1011 C   0  0  0  0  0  0  0  0  0  0  0  0
    0.7420   -3.1001    0.2378 C   0  0  0  0  0  0  0  0  0  0  0  0
   -0.6005   -3.1591    0.6153 C   0  0  0  0  0  0  0  0  0  0  0  0
   -0.9533   -3.0067    1.9269 O   0  0  0  0  0  0  0  0  0  0  0  0
    1.7929    1.6086   -2.2517 H   0  0  0  0  0  0  0  0  0  0  0  0
    0.2882    0.0497   -3.4619 H   0  0  0  0  0  0  0  0  0  0  0  0
   -1.8422   -0.6592   -2.4503 H   0  0  0  0  0  0  0  0  0  0  0  0
   -0.9394    1.6909    1.0453 H   0  0  0  0  0  0  0  0  0  0  0  0
    1.1743    2.4183    0.0098 H   0  0  0  0  0  0  0  0  0  0  0  0
   -3.4968    1.0512   -0.0868 H   0  0  0  0  0  0  0  0  0  0  0  0
   -2.7446    0.0414    1.1002 H   0  0  0  0  0  0  0  0  0  0  0  0
   -3.1816   -1.8447    1.3606 H   0  0  0  0  0  0  0  0  0  0  0  0
   -5.6615   -1.3162    1.1130 H   0  0  0  0  0  0  0  0  0  0  0  0
   -5.8250   -4.2056    0.2211 H   0  0  0  0  0  0  0  0  0  0  0  0
   -4.9835   -3.2049   -1.8007 H   0  0  0  0  0  0  0  0  0  0  0  0
   -7.5526   -1.2429   -2.8370 H   0  0  0  0  0  0  0  0  0  0  0  0
   -6.3579   -0.0659   -3.2342 H   0  0  0  0  0  0  0  0  0  0  0  0
   -6.3531    2.0958   -2.1393 H   0  0  0  0  0  0  0  0  0  0  0  0
   -7.5792    3.7175   -0.7406 H   0  0  0  0  0  0  0  0  0  0  0  0
   -9.4358    2.9609    0.7206 H   0  0  0  0  0  0  0  0  0  0  0  0
  -10.0491    0.5551    0.7955 H   0  0  0  0  0  0  0  0  0  0  0  0
   -8.8367   -1.0784   -0.6026 H   0  0  0  0  0  0  0  0  0  0  0  0
   -6.8702   -3.2955   -3.3355 H   0  0  0  0  0  0  0  0  0  0  0  0
   -8.0120   -3.1242   -2.0207 H   0  0  0  0  0  0  0  0  0  0  0  0
   -8.8626   -5.0185   -0.9421 H   0  0  0  0  0  0  0  0  0  0  0  0
   -8.9232   -7.4653   -0.6402 H   0  0  0  0  0  0  0  0  0  0  0  0
   -7.1303   -8.8864   -1.5994 H   0  0  0  0  0  0  0  0  0  0  0  0
   -5.2818   -7.8601   -2.8704 H   0  0  0  0  0  0  0  0  0  0  0  0
   -4.4495   -5.9609   -3.7078 H   0  0  0  0  0  0  0  0  0  0  0  0
   -7.3965   -3.1486    1.4813 H   0  0  0  0  0  0  0  0  0  0  0  0
   -4.7849   -2.2631    2.9076 H   0  0  0  0  0  0  0  0  0  0  0  0
   -3.1471   -4.1914    0.8761 H   0  0  0  0  0  0  0  0  0  0  0  0
   -3.5769   -3.9688   -0.7790 H   0  0  0  0  0  0  0  0  0  0  0  0
   -1.9847   -3.7276   -2.4408 H   0  0  0  0  0  0  0  0  0  0  0  0
    0.3871   -3.5889   -3.1079 H   0  0  0  0  0  0  0  0  0  0  0  0
    2.1427   -3.2139   -1.3984 H   0  0  0  0  0  0  0  0  0  0  0  0
    1.5251   -2.9181    0.9674 H   0  0  0  0  0  0  0  0  0  0  0  0
   -0.1379   -2.8768    2.4450 H   0  0  0  0  0  0  0  0  0  0  0  0
  1  2  2  0  0  0  0
  1  6  1  0  0  0  0
  1 41  1  0  0  0  0
  2  3  1  0  0  0  0
  2 42  1  0  0  0  0
  3  4  2  0  0  0  0
  3 43  1  0  0  0  0
  4  5  1  0  0  0  0
  4  7  1  0  0  0  0
  5  6  2  0  0  0  0
  5 44  1  0  0  0  0
  6 45  1  0  0  0  0
  7  8  1  0  0  0  0
  7 46  1  0  0  0  0
  7 47  1  0  0  0  0
  8  9  1  0  0  0  0
  8 14  1  0  0  0  0
  9 10  1  0  0  0  0
  9 33  1  0  0  0  0
  9 48  1  1  0  0  0
 10 11  1  0  0  0  0
 10 32  1  0  0  0  0
 10 49  1  1  0  0  0
 11 12  1  0  0  0  0
 11 31  1  0  0  0  0
 11 50  1  1  0  0  0
 12 13  1  0  0  0  0
 12 23  1  0  0  0  0
 12 51  1  6  0  0  0
 13 14  1  0  0  0  0
 13 16  1  0  0  0  0
 14 15  2  0  0  0  0
 16 17  1  0  0  0  0
 16 52  1  0  0  0  0
 16 53  1  0  0  0  0
 17 18  2  0  0  0  0
 17 22  1  0  0  0  0
 18 19  1  0  0  0  0
 18 54  1  0  0  0  0
 19 20  2  0  0  0  0
 19 55  1  0  0  0  0
 20 21  1  0  0  0  0
 20 56  1  0  0  0  0
 21 22  2  0  0  0  0
 21 57  1  0  0  0  0
 22 58  1  0  0  0  0
 23 24  1  0  0  0  0
 23 59  1  0  0  0  0
 23 60  1  0  0  0  0
 24 25  2  0  0  0  0
 24 29  1  0  0  0  0
 25 26  1  0  0  0  0
 25 61  1  0  0  0  0
 26 27  2  0  0  0  0
 26 62  1  0  0  0  0
 27 28  1  0  0  0  0
 27 63  1  0  0  0  0
 28 29  2  0  0  0  0
 28 64  1  0  0  0  0
 29 30  1  0  0  0  0
 30 65  1  0  0  0  0
 31 66  1  0  0  0  0
 32 67  1  0  0  0  0
 33 34  1  0  0  0  0
 33 68  1  0  0  0  0
 33 69  1  0  0  0  0
 34 35  2  0  0  0  0
 34 39  1  0  0  0  0
 35 36  1  0  0  0  0
 35 70  1  0  0  0  0
 36 37  2  0  0  0  0
 36 71  1  0  0  0  0
 37 38  1  0  0  0  0
 37 72  1  0  0  0  0
 38 39  2  0  0  0  0
 38 73  1  0  0  0  0
 39 40  1  0  0  0  0
 40 74  1  0  0  0  0
M  END
