
 OpenBabel10072619593D

 29 29  0  0  0  0  0  0  0  0999 V2000
    2.5765   -3.4922    0.5662 C   0  0  0  0  0  0  0  0  0  0  0  0
    2.4693   -2.0883   -0.0136 C   0  0  0  0  0  0  0  0  0  0  0  0
    1.0090   -1.6347   -0.0023 C   0  0  0  0  0  0  0  0  0  0  0  0
    3.2564   -1.1284    0.7803 N   0  0  0  0  0  0  0  0  0  0  0  0
    4.9336   -1.1405    0.7319 S   0  0  0  0  0  0  0  0  0  0  0  0
    5.3542   -1.8693   -0.4429 O   0  0  0  0  0  0  0  0  0  0  0  0
    5.3790    0.2085    0.9839 O   0  0  0  0  0  0  0  0  0  0  0  0
    5.3470   -2.1029    2.1775 C   0  0  0  0  0  0  0  0  0  0  0  0
    5.1424   -1.6045    3.4790 C   0  0  0  0  0  0  0  0  0  0  0  0
    5.4998   -2.4333    4.5650 C   0  0  0  0  0  0  0  0  0  0  0  0
    6.0367   -3.7052    4.3579 C   0  0  0  0  0  0  0  0  0  0  0  0
    6.2558   -4.1740    3.0681 C   0  0  0  0  0  0  0  0  0  0  0  0
    5.9209   -3.3717    1.9773 C   0  0  0  0  0  0  0  0  0  0  0  0
    6.4354   -4.6941    5.7066 Cl  0  0  0  0  0  0  0  0  0  0  0  0
    4.6149   -0.2175    3.7777 C   0  0  0  0  0  0  0  0  0  0  0  0
    3.5352    0.1518    3.0397 F   0  0  0  0  0  0  0  0  0  0  0  0
    4.1991   -0.0986    5.0752 F   0  0  0  0  0  0  0  0  0  0  0  0
    5.5560    0.7490    3.6218 F   0  0  0  0  0  0  0  0  0  0  0  0
    1.8746   -4.1755    0.0768 H   0  0  0  0  0  0  0  0  0  0  0  0
    2.3653   -3.5002    1.6413 H   0  0  0  0  0  0  0  0  0  0  0  0
    3.5779   -3.9030    0.4179 H   0  0  0  0  0  0  0  0  0  0  0  0
    2.8145   -2.0751   -1.0531 H   0  0  0  0  0  0  0  0  0  0  0  0
    0.6084   -1.6057    1.0170 H   0  0  0  0  0  0  0  0  0  0  0  0
    0.3840   -2.3119   -0.5944 H   0  0  0  0  0  0  0  0  0  0  0  0
    0.9068   -0.6298   -0.4262 H   0  0  0  0  0  0  0  0  0  0  0  0
    2.8996   -0.1726    0.8490 H   0  0  0  0  0  0  0  0  0  0  0  0
    5.3603   -2.0797    5.5870 H   0  0  0  0  0  0  0  0  0  0  0  0
    6.6866   -5.1592    2.9033 H   0  0  0  0  0  0  0  0  0  0  0  0
    6.1057   -3.7486    0.9720 H   0  0  0  0  0  0  0  0  0  0  0  0
  1  2  1  0  0  0  0
  1 19  1  0  0  0  0
  1 20  1  0  0  0  0
  1 21  1  0  0  0  0
  2  3  1  0  0  0  0
  2  4  1  0  0  0  0
  2 22  1  0  0  0  0
  3 23  1  0  0  0  0
  3 24  1  0  0  0  0
  3 25  1  0  0  0  0
  4  5  1  0  0  0  0
  4 26  1  0  0  0  0
  5  6  2  0  0  0  0
  5  7  2  0  0  0  0
  5  8  1  0  0  0  0
  8  9  2  0  0  0  0
  8 13  1  0  0  0  0
  9 10  1  0  0  0  0
  9 15  1  0  0  0  0
 10 11  2  0  0  0  0
 10 27  1  0  0  0  0
 11 12  1  0  0  0  0
 11 14  1  0  0  0  0
 12 13  2  0  0  0  0
 12 28  1  0  0  0  0
 13 29  1  0  0  0  0
 15 16  1  0  0  0  0
 15 17  1  0  0  0  0
 15 18  1  0  0  0  0
M  END
