
 OpenBabel10072616323D

 43 44  0  0  0  0  0  0  0  0999 V2000
    2.1145    0.8697   -2.0826 C   0  0  0  0  0  0  0  0  0  0  0  0
    0.7383    0.5875   -1.5545 C   0  0  0  0  0  0  0  0  0  0  0  0
    0.4699    0.6673   -0.1812 C   0  0  0  0  0  0  0  0  0  0  0  0
   -0.8049    0.3776    0.3059 C   0  0  0  0  0  0  0  0  0  0  0  0
   -1.8134    0.0023   -0.5853 C   0  0  0  0  0  0  0  0  0  0  0  0
   -1.5564   -0.1034   -1.9536 C   0  0  0  0  0  0  0  0  0  0  0  0
   -0.2791    0.1893   -2.4335 C   0  0  0  0  0  0  0  0  0  0  0  0
   -3.4287   -0.3649    0.0528 S   0  0  0  0  0  0  0  0  0  0  0  0
   -4.2892   -0.7313   -1.0515 O   0  0  0  0  0  0  0  0  0  0  0  0
   -3.2476   -1.2408    1.1905 O   0  0  0  0  0  0  0  0  0  0  0  0
   -3.9469    1.1547    0.6307 N   0  0  0  0  0  0  0  0  0  0  0  0
   -4.1935    2.1874   -0.4271 C   0  0  0  0  0  0  0  0  0  0  0  0
   -4.4088    3.5543    0.2372 C   0  0  0  0  0  0  0  0  0  0  0  0
   -5.5483    3.5381    1.2036 N   0  0  0  0  0  0  0  0  0  0  0  0
   -5.4021    2.4298    2.2009 C   0  0  0  0  0  0  0  0  0  0  0  0
   -5.1312    1.0645    1.5461 C   0  0  0  0  0  0  0  0  0  0  0  0
   -7.0764    3.7236    0.5181 S   0  0  0  0  0  0  0  0  0  0  0  0
   -7.0425    4.8456   -0.3899 O   0  0  0  0  0  0  0  0  0  0  0  0
   -7.5387    2.4267    0.0867 O   0  0  0  0  0  0  0  0  0  0  0  0
   -7.9569    4.1859    1.8889 N   0  0  0  0  0  0  0  0  0  0  0  0
   -7.5602    5.4908    2.4633 C   0  0  0  0  0  0  0  0  0  0  0  0
   -9.4214    4.1020    1.6988 C   0  0  0  0  0  0  0  0  0  0  0  0
    2.7065    1.4430   -1.3616 H   0  0  0  0  0  0  0  0  0  0  0  0
    2.0558    1.4615   -3.0022 H   0  0  0  0  0  0  0  0  0  0  0  0
    2.6356   -0.0693   -2.2932 H   0  0  0  0  0  0  0  0  0  0  0  0
    1.2541    0.9521    0.5170 H   0  0  0  0  0  0  0  0  0  0  0  0
   -1.0055    0.4383    1.3734 H   0  0  0  0  0  0  0  0  0  0  0  0
   -2.3350   -0.4147   -2.6461 H   0  0  0  0  0  0  0  0  0  0  0  0
   -0.0764    0.1013   -3.4994 H   0  0  0  0  0  0  0  0  0  0  0  0
   -5.0649    1.9083   -1.0294 H   0  0  0  0  0  0  0  0  0  0  0  0
   -3.3257    2.2634   -1.0889 H   0  0  0  0  0  0  0  0  0  0  0  0
   -4.5565    4.3284   -0.5225 H   0  0  0  0  0  0  0  0  0  0  0  0
   -3.5084    3.8436    0.7938 H   0  0  0  0  0  0  0  0  0  0  0  0
   -6.2840    2.3688    2.8468 H   0  0  0  0  0  0  0  0  0  0  0  0
   -4.5630    2.6951    2.8568 H   0  0  0  0  0  0  0  0  0  0  0  0
   -6.0027    0.7060    0.9906 H   0  0  0  0  0  0  0  0  0  0  0  0
   -4.9228    0.3468    2.3467 H   0  0  0  0  0  0  0  0  0  0  0  0
   -6.4827    5.5330    2.6439 H   0  0  0  0  0  0  0  0  0  0  0  0
   -8.0499    5.6273    3.4331 H   0  0  0  0  0  0  0  0  0  0  0  0
   -7.8520    6.3176    1.8088 H   0  0  0  0  0  0  0  0  0  0  0  0
   -9.7171    3.0795    1.4465 H   0  0  0  0  0  0  0  0  0  0  0  0
   -9.7575    4.7870    0.9142 H   0  0  0  0  0  0  0  0  0  0  0  0
   -9.9337    4.3622    2.6310 H   0  0  0  0  0  0  0  0  0  0  0  0
  1  2  1  0  0  0  0
  1 23  1  0  0  0  0
  1 24  1  0  0  0  0
  1 25  1  0  0  0  0
  2  3  2  0  0  0  0
  2  7  1  0  0  0  0
  3  4  1  0  0  0  0
  3 26  1  0  0  0  0
  4  5  2  0  0  0  0
  4 27  1  0  0  0  0
  5  6  1  0  0  0  0
  5  8  1  0  0  0  0
  6  7  2  0  0  0  0
  6 28  1  0  0  0  0
  7 29  1  0  0  0  0
  8  9  2  0  0  0  0
  8 10  2  0  0  0  0
  8 11  1  0  0  0  0
 11 12  1  0  0  0  0
 11 16  1  0  0  0  0
 12 13  1  0  0  0  0
 12 30  1  0  0  0  0
 12 31  1  0  0  0  0
 13 14  1  0  0  0  0
 13 32  1  0  0  0  0
 13 33  1  0  0  0  0
 14 15  1  0  0  0  0
 14 17  1  0  0  0  0
 15 16  1  0  0  0  0
 15 34  1  0  0  0  0
 15 35  1  0  0  0  0
 16 36  1  0  0  0  0
 16 37  1  0  0  0  0
 17 18  2  0  0  0  0
 17 19  2  0  0  0  0
 17 20  1  0  0  0  0
 20 21  1  0  0  0  0
 20 22  1  0  0  0  0
 21 38  1  0  0  0  0
 21 39  1  0  0  0  0
 21 40  1  0  0  0  0
 22 41  1  0  0  0  0
 22 42  1  0  0  0  0
 22 43  1  0  0  0  0
M  END
