
 OpenBabel10072619243D

231238  0  0  1  0  0  0  0  0999 V2000
    1.4394   -0.3202   -0.4155 C   0  0  0  0  0  0  0  0  0  0  0  0
    0.7875    1.0014   -1.1689 C   0  0  3  0  0  0  0  0  0  0  0  0
    1.4861    2.8650   -1.1303 C   0  0  3  0  0  0  0  0  0  0  0  0
    1.8988    2.2726    0.0670 C   0  0  3  0  0  0  0  0  0  0  0  0
    0.2476    2.7523    0.0279 C   0  0  3  0  0  0  0  0  0  0  0  0
   -0.4147    1.6090    0.6603 C   0  0  3  0  0  0  0  0  0  0  0  0
   -0.6122    0.9195   -0.5556 O   0  0  0  0  0  0  0  0  0  0  0  0
   -1.2893    2.1807    1.5766 O   0  0  0  0  0  0  0  0  0  0  0  0
   -0.6301    2.4890    2.8703 C   0  0  3  0  0  0  0  0  0  0  0  0
    0.4900    3.7739    3.1719 C   0  0  3  0  0  0  0  0  0  0  0  0
    1.6489    3.3911    2.5979 O   0  0  0  0  0  0  0  0  0  0  0  0
    2.6936    2.7671    3.1494 C   0  0  3  0  0  0  0  0  0  0  0  0
    1.8083    1.4093    3.5359 C   0  0  3  0  0  0  0  0  0  0  0  0
    0.1181    1.3317    3.5284 C   0  0  3  0  0  0  0  0  0  0  0  0
   -0.6291    0.1282    3.5853 O   0  0  0  0  0  0  0  0  0  0  0  0
   -0.9504   -0.4983    5.0723 S   0  0  0  0  0  0  0  0  0  0  0  0
    0.2863   -0.9789    5.6177 O   0  0  0  0  0  0  0  0  0  0  0  0
   -1.8531    0.3962    5.7793 O   0  0  0  0  0  0  0  0  0  0  0  0
   -1.9851   -1.6691    4.7327 O   0  0  0  0  0  0  0  0  0  0  0  0
    2.6638    0.6193    4.3147 O   0  0  0  0  0  0  0  0  0  0  0  0
    3.9634    0.1550    3.3992 S   0  0  0  0  0  0  0  0  0  0  0  0
    3.4583   -0.5648    2.2521 O   0  0  0  0  0  0  0  0  0  0  0  0
    4.8440    1.2810    3.1922 O   0  0  0  0  0  0  0  0  0  0  0  0
    4.7212   -0.8285    4.3852 O   0  0  0  0  0  0  0  0  0  0  0  0
    3.5682    3.7801    3.8231 O   0  0  0  0  0  0  0  0  0  0  0  0
    4.8377    4.7306    3.3783 C   0  0  3  0  0  0  0  0  0  0  0  0
    4.6829    6.1020    2.7401 C   0  0  3  0  0  0  0  0  0  0  0  0
    4.8444    6.1277    1.3798 O   0  0  0  0  0  0  0  0  0  0  0  0
    5.7389    5.8999    0.3950 C   0  0  3  0  0  0  0  0  0  0  0  0
    6.5476    4.7450    1.1149 C   0  0  3  0  0  0  0  0  0  0  0  0
    6.2229    4.4622    2.7346 C   0  0  3  0  0  0  0  0  0  0  0  0
    6.6718    3.2740    3.2929 O   0  0  0  0  0  0  0  0  0  0  0  0
    8.2450    3.2223    3.5735 S   0  0  0  0  0  0  0  0  0  0  0  0
    8.8395    2.7601    2.3472 O   0  0  0  0  0  0  0  0  0  0  0  0
    8.6555    4.4783    4.1556 O   0  0  0  0  0  0  0  0  0  0  0  0
    8.3345    2.0962    4.6996 O   0  0  0  0  0  0  0  0  0  0  0  0
    7.7236    4.4111    0.4524 O   0  0  0  0  0  0  0  0  0  0  0  0
    8.8304    5.5175    0.1187 S   0  0  0  0  0  0  0  0  0  0  0  0
    9.8337    4.8216   -0.6445 O   0  0  0  0  0  0  0  0  0  0  0  0
    8.2155    6.7036   -0.4056 O   0  0  0  0  0  0  0  0  0  0  0  0
    9.3595    5.7853    1.5939 O   0  0  0  0  0  0  0  0  0  0  0  0
    5.8307    7.1932   -0.1958 O   0  0  0  0  0  0  0  0  0  0  0  0
    4.9342    7.8590   -1.2674 C   0  0  3  0  0  0  0  0  0  0  0  0
    3.4637    8.1992   -1.0683 C   0  0  3  0  0  0  0  0  0  0  0  0
    2.6018    7.1313   -1.4444 O   0  0  0  0  0  0  0  0  0  0  0  0
    2.4333    6.6100   -2.7458 C   0  0  3  0  0  0  0  0  0  0  0  0
    3.9270    6.3191   -3.1181 C   0  0  3  0  0  0  0  0  0  0  0  0
    5.0475    7.3191   -2.7136 C   0  0  3  0  0  0  0  0  0  0  0  0
    6.3179    6.7134   -2.6633 O   0  0  0  0  0  0  0  0  0  0  0  0
    7.0511    6.2958   -4.0157 S   0  0  0  0  0  0  0  0  0  0  0  0
    6.6927    4.9116   -4.2148 O   0  0  0  0  0  0  0  0  0  0  0  0
    6.8270    7.3538   -4.9668 O   0  0  0  0  0  0  0  0  0  0  0  0
    8.5827    6.2850   -3.5580 O   0  0  0  0  0  0  0  0  0  0  0  0
    4.2041    5.2506   -3.9944 O   0  0  0  0  0  0  0  0  0  0  0  0
    3.7871    5.1625   -5.5417 S   0  0  0  0  0  0  0  0  0  0  0  0
    2.6865    6.0556   -5.7602 O   0  0  0  0  0  0  0  0  0  0  0  0
    4.9686    5.1536   -6.3619 O   0  0  0  0  0  0  0  0  0  0  0  0
    3.1263    3.7008   -5.5913 O   0  0  0  0  0  0  0  0  0  0  0  0
    1.4938    7.3869   -3.4923 O   0  0  0  0  0  0  0  0  0  0  0  0
    0.0282    7.5035   -3.1737 C   0  0  3  0  0  0  0  0  0  0  0  0
   -0.4805    7.9703   -1.8172 C   0  0  3  0  0  0  0  0  0  0  0  0
   -0.6354    6.9005   -0.8954 O   0  0  0  0  0  0  0  0  0  0  0  0
   -1.5357    5.8290   -0.9749 C   0  0  3  0  0  0  0  0  0  0  0  0
   -1.3591    5.3353   -2.4988 C   0  0  3  0  0  0  0  0  0  0  0  0
   -0.8960    6.3499   -3.5554 C   0  0  3  0  0  0  0  0  0  0  0  0
   -0.3186    5.6848   -4.6744 O   0  0  0  0  0  0  0  0  0  0  0  0
   -0.4887    6.4906   -6.0730 S   0  0  0  0  0  0  0  0  0  0  0  0
   -1.9047    6.7043   -6.2603 O   0  0  0  0  0  0  0  0  0  0  0  0
    0.4271    7.6062   -6.0805 O   0  0  0  0  0  0  0  0  0  0  0  0
   -0.0228    5.3773   -7.1296 O   0  0  0  0  0  0  0  0  0  0  0  0
   -2.4187    4.6396   -3.1383 O   0  0  0  0  0  0  0  0  0  0  0  0
   -3.4043    3.6141   -2.3258 S   0  0  0  0  0  0  0  0  0  0  0  0
   -3.0019    3.5486   -0.9500 O   0  0  0  0  0  0  0  0  0  0  0  0
   -4.7494    3.8423   -2.7802 O   0  0  0  0  0  0  0  0  0  0  0  0
   -3.0720    2.1022   -2.7469 O   0  0  0  0  0  0  0  0  0  0  0  0
   -2.7551    6.0738   -0.2358 O   0  0  0  0  0  0  0  0  0  0  0  0
   -2.8480    6.4610    1.2417 C   0  0  3  0  0  0  0  0  0  0  0  0
   -2.0275    7.6451    1.6162 C   0  0  3  0  0  0  0  0  0  0  0  0
   -0.8563    6.9482    1.7441 O   0  0  0  0  0  0  0  0  0  0  0  0
   -0.5376    6.4283    2.9626 C   0  0  3  0  0  0  0  0  0  0  0  0
   -1.5353    5.1809    3.4798 C   0  0  3  0  0  0  0  0  0  0  0  0
   -2.8229    5.3522    2.5260 C   0  0  3  0  0  0  0  0  0  0  0  0
   -3.1905    4.1025    1.9991 O   0  0  0  0  0  0  0  0  0  0  0  0
   -4.6324    4.0049    1.2902 S   0  0  0  0  0  0  0  0  0  0  0  0
   -4.7303    4.9827    0.2413 O   0  0  0  0  0  0  0  0  0  0  0  0
   -4.9582    2.6171    1.1127 O   0  0  0  0  0  0  0  0  0  0  0  0
   -5.5291    4.6345    2.4653 O   0  0  0  0  0  0  0  0  0  0  0  0
   -1.3511    3.8904    4.7831 O   0  0  0  0  0  0  0  0  0  0  0  0
    0.0477    3.0117    5.9083 S   0  0  0  0  0  0  0  0  0  0  0  0
   -0.1546    1.6512    6.3350 O   0  0  0  0  0  0  0  0  0  0  0  0
    1.3729    3.0422    5.3230 O   0  0  0  0  0  0  0  0  0  0  0  0
    0.0477    3.7066    7.3034 O   0  0  0  0  0  0  0  0  0  0  0  0
   -0.0785    7.4938    3.7267 O   0  0  0  0  0  0  0  0  0  0  0  0
    1.0551    8.2011    3.1922 C   0  0  3  0  0  0  0  0  0  0  0  0
    0.9564    8.8487    1.7467 C   0  0  3  0  0  0  0  0  0  0  0  0
    0.7730    7.8995    0.5022 O   0  0  0  0  0  0  0  0  0  0  0  0
    0.9485    6.0987    0.5121 C   0  0  3  0  0  0  0  0  0  0  0  0
    0.9722    4.6867   -0.8352 O   0  0  0  0  0  0  0  0  0  0  0  0
    2.1668    6.4423    1.5314 C   0  0  3  0  0  0  0  0  0  0  0  0
    2.2739    7.3421    3.1426 C   0  0  3  0  0  0  0  0  0  0  0  0
    2.6140    6.6165    4.3785 O   0  0  0  0  0  0  0  0  0  0  0  0
    3.3219    6.7935    5.8528 S   0  0  0  0  0  0  0  0  0  0  0  0
    4.6680    7.2806    5.7236 O   0  0  0  0  0  0  0  0  0  0  0  0
    2.4716    7.2796    6.8894 O   0  0  0  0  0  0  0  0  0  0  0  0
    3.5341    5.2376    6.2267 O   0  0  0  0  0  0  0  0  0  0  0  0
    3.1535    6.1130    0.6282 O   0  0  0  0  0  0  0  0  0  0  0  0
    3.2643    4.5866    0.4081 S   0  0  0  0  0  0  0  0  0  0  0  0
    4.3072    3.8552    1.0637 O   0  0  0  0  0  0  0  0  0  0  0  0
    2.0136    4.2349    0.8911 O   0  0  0  0  0  0  0  0  0  0  0  0
    3.3343    4.4094   -1.1680 O   0  0  0  0  0  0  0  0  0  0  0  0
    2.1727    9.9125    1.6391 C   0  0  0  0  0  0  0  0  0  0  0  0
    2.1008   10.8751    0.6087 O   0  0  0  0  0  0  0  0  0  0  0  0
    1.1317   12.1764    0.7308 S   0  0  0  0  0  0  0  0  0  0  0  0
    1.3660   13.0088   -0.4225 O   0  0  0  0  0  0  0  0  0  0  0  0
   -0.1818   11.7122    1.0930 O   0  0  0  0  0  0  0  0  0  0  0  0
    1.7881   13.0101    1.9411 O   0  0  0  0  0  0  0  0  0  0  0  0
   -2.3836    8.4728    2.8498 C   0  0  0  0  0  0  0  0  0  0  0  0
   -1.5069    9.5864    2.8702 O   0  0  0  0  0  0  0  0  0  0  0  0
   -1.2319   10.4627    4.1949 S   0  0  0  0  0  0  0  0  0  0  0  0
   -0.8273    9.5914    5.2574 O   0  0  0  0  0  0  0  0  0  0  0  0
   -0.4535   11.6212    3.8464 O   0  0  0  0  0  0  0  0  0  0  0  0
   -2.7227   10.8580    4.5988 O   0  0  0  0  0  0  0  0  0  0  0  0
   -1.7693    8.7049   -1.6083 C   0  0  0  0  0  0  0  0  0  0  0  0
   -2.5163    9.0819   -2.7153 O   0  0  0  0  0  0  0  0  0  0  0  0
   -4.1085    9.0707   -2.3611 S   0  0  0  0  0  0  0  0  0  0  0  0
   -4.5059    7.6829   -2.3232 O   0  0  0  0  0  0  0  0  0  0  0  0
   -4.3258    9.9501   -1.2342 O   0  0  0  0  0  0  0  0  0  0  0  0
   -4.7173    9.7160   -3.6887 O   0  0  0  0  0  0  0  0  0  0  0  0
    2.7734    9.3583   -1.7266 C   0  0  0  0  0  0  0  0  0  0  0  0
    3.3636   10.5994   -1.9201 O   0  0  0  0  0  0  0  0  0  0  0  0
    2.3989   11.5618   -2.8426 S   0  0  0  0  0  0  0  0  0  0  0  0
    1.0437   11.4505   -2.3414 O   0  0  0  0  0  0  0  0  0  0  0  0
    3.0779   12.8143   -3.0471 O   0  0  0  0  0  0  0  0  0  0  0  0
    2.3726   10.7516   -4.2353 O   0  0  0  0  0  0  0  0  0  0  0  0
    5.2587    7.4893    2.9397 C   0  0  0  0  0  0  0  0  0  0  0  0
    6.6279    7.5246    2.6015 O   0  0  0  0  0  0  0  0  0  0  0  0
    7.2567    8.9543    2.1685 S   0  0  0  0  0  0  0  0  0  0  0  0
    6.8219    9.9192    3.1525 O   0  0  0  0  0  0  0  0  0  0  0  0
    8.6355    8.7614    1.8167 O   0  0  0  0  0  0  0  0  0  0  0  0
    6.4756    9.3954    0.8393 O   0  0  0  0  0  0  0  0  0  0  0  0
    0.7283    5.0241    4.5863 C   0  0  0  0  0  0  0  0  0  0  0  0
   -0.3450    5.6537    5.3847 O   0  0  0  0  0  0  0  0  0  0  0  0
   -0.2220    6.6808    6.6474 S   0  0  0  0  0  0  0  0  0  0  0  0
    0.1235    5.9758    7.8474 O   0  0  0  0  0  0  0  0  0  0  0  0
    0.4652    7.8452    6.1829 O   0  0  0  0  0  0  0  0  0  0  0  0
   -1.7617    7.1341    6.8390 O   0  0  0  0  0  0  0  0  0  0  0  0
   -0.5829    3.0520   -1.5100 O   0  0  0  0  0  0  0  0  0  0  0  0
   -0.4479    2.3525   -3.1995 S   0  0  0  0  0  0  0  0  0  0  0  0
   -0.7280    0.9377   -3.2199 O   0  0  0  0  0  0  0  0  0  0  0  0
   -1.1839    3.0950   -4.1870 O   0  0  0  0  0  0  0  0  0  0  0  0
    1.0697    2.5688   -3.7131 O   0  0  0  0  0  0  0  0  0  0  0  0
    3.2822    2.2644   -0.1640 O   0  0  0  0  0  0  0  0  0  0  0  0
    4.3182    1.8674   -1.3590 S   0  0  0  0  0  0  0  0  0  0  0  0
    5.2360    0.8774   -0.8770 O   0  0  0  0  0  0  0  0  0  0  0  0
    3.6259    1.7618   -2.6090 O   0  0  0  0  0  0  0  0  0  0  0  0
    5.2429    3.2166   -1.4577 O   0  0  0  0  0  0  0  0  0  0  0  0
    0.5878   -1.4825   -0.4745 O   0  0  0  0  0  0  0  0  0  0  0  0
    0.7303   -2.5261    0.7888 S   0  0  0  0  0  0  0  0  0  0  0  0
    2.0081   -3.1882    0.6666 O   0  0  0  0  0  0  0  0  0  0  0  0
    0.3637   -1.8297    2.0015 O   0  0  0  0  0  0  0  0  0  0  0  0
   -0.4046   -3.6294    0.4947 O   0  0  0  0  0  0  0  0  0  0  0  0
    1.5378   -0.1798    0.6529 H   0  0  0  0  0  0  0  0  0  0  0  0
    2.4275   -0.5603   -0.7951 H   0  0  0  0  0  0  0  0  0  0  0  0
    0.9244    0.6323   -2.1786 H   0  0  0  0  0  0  0  0  0  0  0  0
    2.1146    2.9587   -1.9790 H   0  0  0  0  0  0  0  0  0  0  0  0
    1.8731    1.4852    0.7589 H   0  0  0  0  0  0  0  0  0  0  0  0
   -0.0215    3.6235    0.6156 H   0  0  0  0  0  0  0  0  0  0  0  0
    0.1546    0.9436    1.2753 H   0  0  0  0  0  0  0  0  0  0  0  0
   -1.5958    2.6503    3.3532 H   0  0  0  0  0  0  0  0  0  0  0  0
    0.2783    4.3908    2.3228 H   0  0  0  0  0  0  0  0  0  0  0  0
    3.2634    2.4258    2.2950 H   0  0  0  0  0  0  0  0  0  0  0  0
    1.7757    0.8977    2.5776 H   0  0  0  0  0  0  0  0  0  0  0  0
   -0.2011    1.6756    4.4266 H   0  0  0  0  0  0  0  0  0  0  0  0
   -2.8012   -1.1831    4.4953 H   0  0  0  0  0  0  0  0  0  0  0  0
    4.1560   -0.8982    5.1771 H   0  0  0  0  0  0  0  0  0  0  0  0
    5.0586    4.9360    4.4160 H   0  0  0  0  0  0  0  0  0  0  0  0
    3.6523    6.0516    2.8561 H   0  0  0  0  0  0  0  0  0  0  0  0
    5.3594    5.3716   -0.4649 H   0  0  0  0  0  0  0  0  0  0  0  0
    6.1156    3.7966    0.8207 H   0  0  0  0  0  0  0  0  0  0  0  0
    6.7911    5.2832    3.1776 H   0  0  0  0  0  0  0  0  0  0  0  0
    7.6217    1.4519    4.5290 H   0  0  0  0  0  0  0  0  0  0  0  0
    9.6816    4.9300    1.9376 H   0  0  0  0  0  0  0  0  0  0  0  0
    5.4009    8.8448   -1.2634 H   0  0  0  0  0  0  0  0  0  0  0  0
    3.3686    8.3675   -0.0131 H   0  0  0  0  0  0  0  0  0  0  0  0
    1.9517    5.6264   -2.7195 H   0  0  0  0  0  0  0  0  0  0  0  0
    4.1939    5.7538   -2.2521 H   0  0  0  0  0  0  0  0  0  0  0  0
    4.9899    8.1695   -3.3959 H   0  0  0  0  0  0  0  0  0  0  0  0
    8.7353    5.4577   -3.0596 H   0  0  0  0  0  0  0  0  0  0  0  0
    2.1687    3.8053   -5.7538 H   0  0  0  0  0  0  0  0  0  0  0  0
   -0.2213    8.3277   -3.8467 H   0  0  0  0  0  0  0  0  0  0  0  0
    0.2808    8.6362   -1.4521 H   0  0  0  0  0  0  0  0  0  0  0  0
   -1.1348    5.0501   -0.3448 H   0  0  0  0  0  0  0  0  0  0  0  0
   -0.4356    4.7595   -2.5396 H   0  0  0  0  0  0  0  0  0  0  0  0
   -1.8488    6.7842   -3.8548 H   0  0  0  0  0  0  0  0  0  0  0  0
   -0.6754    4.6484   -7.0799 H   0  0  0  0  0  0  0  0  0  0  0  0
   -2.9253    1.5977   -1.9064 H   0  0  0  0  0  0  0  0  0  0  0  0
   -3.8617    6.8428    1.2677 H   0  0  0  0  0  0  0  0  0  0  0  0
   -1.8550    8.3353    0.8074 H   0  0  0  0  0  0  0  0  0  0  0  0
    0.3546    5.9918    2.6158 H   0  0  0  0  0  0  0  0  0  0  0  0
   -1.2687    4.5239    2.7151 H   0  0  0  0  0  0  0  0  0  0  0  0
   -3.5310    5.7131    3.2644 H   0  0  0  0  0  0  0  0  0  0  0  0
   -5.5106    5.5976    2.3180 H   0  0  0  0  0  0  0  0  0  0  0  0
   -0.4548    3.1093    7.8783 H   0  0  0  0  0  0  0  0  0  0  0  0
    1.2847    8.9771    3.9348 H   0  0  0  0  0  0  0  0  0  0  0  0
    0.0863    9.4692    1.6725 H   0  0  0  0  0  0  0  0  0  0  0  0
    1.2721    6.4615   -0.4174 H   0  0  0  0  0  0  0  0  0  0  0  0
    2.4060    7.4376    1.2539 H   0  0  0  0  0  0  0  0  0  0  0  0
    3.0803    8.0460    3.0499 H   0  0  0  0  0  0  0  0  0  0  0  0
    4.4721    5.0409    6.4171 H   0  0  0  0  0  0  0  0  0  0  0  0
    4.2525    4.1985   -1.4355 H   0  0  0  0  0  0  0  0  0  0  0  0
    3.1250    9.4084    1.4744 H   0  0  0  0  0  0  0  0  0  0  0  0
    2.3381   10.4482    2.5790 H   0  0  0  0  0  0  0  0  0  0  0  0
    2.3151   13.7336    1.5328 H   0  0  0  0  0  0  0  0  0  0  0  0
   -2.3032    7.9022    3.7803 H   0  0  0  0  0  0  0  0  0  0  0  0
   -3.3994    8.8301    2.7554 H   0  0  0  0  0  0  0  0  0  0  0  0
   -3.0739   10.0557    5.0348 H   0  0  0  0  0  0  0  0  0  0  0  0
   -1.6135    9.5406   -0.9216 H   0  0  0  0  0  0  0  0  0  0  0  0
   -2.4126    8.0360   -1.0516 H   0  0  0  0  0  0  0  0  0  0  0  0
   -4.3170    9.2399   -4.4434 H   0  0  0  0  0  0  0  0  0  0  0  0
    1.8640    9.5243   -1.1532 H   0  0  0  0  0  0  0  0  0  0  0  0
    2.4385    9.0343   -2.6951 H   0  0  0  0  0  0  0  0  0  0  0  0
    1.6998   10.0369   -4.1883 H   0  0  0  0  0  0  0  0  0  0  0  0
    5.0605    7.9609    3.8788 H   0  0  0  0  0  0  0  0  0  0  0  0
    4.7526    8.1533    2.2114 H   0  0  0  0  0  0  0  0  0  0  0  0
    6.3250   10.3547    0.8849 H   0  0  0  0  0  0  0  0  0  0  0  0
    1.1255    5.7379    3.9855 H   0  0  0  0  0  0  0  0  0  0  0  0
    1.5618    4.9217    5.2567 H   0  0  0  0  0  0  0  0  0  0  0  0
   -2.3680    6.4605    6.5012 H   0  0  0  0  0  0  0  0  0  0  0  0
    1.4355    3.4487   -3.5325 H   0  0  0  0  0  0  0  0  0  0  0  0
    6.1343    3.0441   -1.0683 H   0  0  0  0  0  0  0  0  0  0  0  0
   -0.2687   -4.0052   -0.3956 H   0  0  0  0  0  0  0  0  0  0  0  0
  1  2  1  0  0  0  0
  1157  1  0  0  0  0
  1162  1  0  0  0  0
  1163  1  0  0  0  0
  2  3  1  0  0  0  0
  2  7  1  0  0  0  0
  2164  1  0  0  0  0
  3  4  1  0  0  0  0
  3 98  1  0  0  0  0
  3165  1  0  0  0  0
  4  5  1  0  0  0  0
  4152  1  0  0  0  0
  4166  1  0  0  0  0
  5  6  1  0  0  0  0
  5147  1  0  0  0  0
  5167  1  0  0  0  0
  6  7  1  0  0  0  0
  6  8  1  0  0  0  0
  6168  1  0  0  0  0
  8  9  1  0  0  0  0
  9 10  1  0  0  0  0
  9 14  1  0  0  0  0
  9169  1  0  0  0  0
 10 11  1  0  0  0  0
 10141  1  0  0  0  0
 10170  1  0  0  0  0
 11 12  1  0  0  0  0
 12 13  1  0  0  0  0
 12 25  1  0  0  0  0
 12171  1  0  0  0  0
 13 14  1  0  0  0  0
 13 20  1  0  0  0  0
 13172  1  0  0  0  0
 14 15  1  0  0  0  0
 14173  1  0  0  0  0
 15 16  1  0  0  0  0
 16 17  2  0  0  0  0
 16 18  2  0  0  0  0
 16 19  1  0  0  0  0
 19174  1  0  0  0  0
 20 21  1  0  0  0  0
 21 22  2  0  0  0  0
 21 23  2  0  0  0  0
 21 24  1  0  0  0  0
 24175  1  0  0  0  0
 25 26  1  0  0  0  0
 26 27  1  0  0  0  0
 26 31  1  0  0  0  0
 26176  1  0  0  0  0
 27 28  1  0  0  0  0
 27135  1  0  0  0  0
 27177  1  0  0  0  0
 28 29  1  0  0  0  0
 29 30  1  0  0  0  0
 29 42  1  0  0  0  0
 29178  1  0  0  0  0
 30 31  1  0  0  0  0
 30 37  1  0  0  0  0
 30179  1  0  0  0  0
 31 32  1  0  0  0  0
 31180  1  0  0  0  0
 32 33  1  0  0  0  0
 33 34  2  0  0  0  0
 33 35  2  0  0  0  0
 33 36  1  0  0  0  0
 36181  1  0  0  0  0
 37 38  1  0  0  0  0
 38 39  2  0  0  0  0
 38 40  2  0  0  0  0
 38 41  1  0  0  0  0
 41182  1  0  0  0  0
 42 43  1  0  0  0  0
 43 44  1  0  0  0  0
 43 48  1  0  0  0  0
 43183  1  0  0  0  0
 44 45  1  0  0  0  0
 44129  1  0  0  0  0
 44184  1  0  0  0  0
 45 46  1  0  0  0  0
 46 47  1  0  0  0  0
 46 59  1  0  0  0  0
 46185  1  0  0  0  0
 47 48  1  0  0  0  0
 47 54  1  0  0  0  0
 47186  1  0  0  0  0
 48 49  1  0  0  0  0
 48187  1  0  0  0  0
 49 50  1  0  0  0  0
 50 51  2  0  0  0  0
 50 52  2  0  0  0  0
 50 53  1  0  0  0  0
 53188  1  0  0  0  0
 54 55  1  0  0  0  0
 55 56  2  0  0  0  0
 55 57  2  0  0  0  0
 55 58  1  0  0  0  0
 58189  1  0  0  0  0
 59 60  1  0  0  0  0
 60 61  1  0  0  0  0
 60 65  1  0  0  0  0
 60190  1  0  0  0  0
 61 62  1  0  0  0  0
 61123  1  0  0  0  0
 61191  1  0  0  0  0
 62 63  1  0  0  0  0
 63 64  1  0  0  0  0
 63 76  1  0  0  0  0
 63192  1  0  0  0  0
 64 65  1  0  0  0  0
 64 71  1  0  0  0  0
 64193  1  0  0  0  0
 65 66  1  0  0  0  0
 65194  1  0  0  0  0
 66 67  1  0  0  0  0
 67 68  2  0  0  0  0
 67 69  2  0  0  0  0
 67 70  1  0  0  0  0
 70195  1  0  0  0  0
 71 72  1  0  0  0  0
 72 73  2  0  0  0  0
 72 74  2  0  0  0  0
 72 75  1  0  0  0  0
 75196  1  0  0  0  0
 76 77  1  0  0  0  0
 77 78  1  0  0  0  0
 77 82  1  0  0  0  0
 77197  1  0  0  0  0
 78 79  1  0  0  0  0
 78117  1  0  0  0  0
 78198  1  0  0  0  0
 79 80  1  0  0  0  0
 80 81  1  0  0  0  0
 80 93  1  0  0  0  0
 80199  1  0  0  0  0
 81 82  1  0  0  0  0
 81 88  1  0  0  0  0
 81200  1  0  0  0  0
 82 83  1  0  0  0  0
 82201  1  0  0  0  0
 83 84  1  0  0  0  0
 84 85  2  0  0  0  0
 84 86  2  0  0  0  0
 84 87  1  0  0  0  0
 87202  1  0  0  0  0
 88 89  1  0  0  0  0
 89 90  2  0  0  0  0
 89 91  2  0  0  0  0
 89 92  1  0  0  0  0
 92203  1  0  0  0  0
 93 94  1  0  0  0  0
 94 95  1  0  0  0  0
 94100  1  0  0  0  0
 94204  1  0  0  0  0
 95 96  1  0  0  0  0
 95111  1  0  0  0  0
 95205  1  0  0  0  0
 96 97  1  0  0  0  0
 97 98  1  0  0  0  0
 97 99  1  0  0  0  0
 97206  1  0  0  0  0
 99100  1  0  0  0  0
 99106  1  0  0  0  0
 99207  1  0  0  0  0
100101  1  0  0  0  0
100208  1  0  0  0  0
101102  1  0  0  0  0
102103  2  0  0  0  0
102104  2  0  0  0  0
102105  1  0  0  0  0
105209  1  0  0  0  0
106107  1  0  0  0  0
107108  2  0  0  0  0
107109  2  0  0  0  0
107110  1  0  0  0  0
110210  1  0  0  0  0
111112  1  0  0  0  0
111211  1  0  0  0  0
111212  1  0  0  0  0
112113  1  0  0  0  0
113114  2  0  0  0  0
113115  2  0  0  0  0
113116  1  0  0  0  0
116213  1  0  0  0  0
117118  1  0  0  0  0
117214  1  0  0  0  0
117215  1  0  0  0  0
118119  1  0  0  0  0
119120  2  0  0  0  0
119121  2  0  0  0  0
119122  1  0  0  0  0
122216  1  0  0  0  0
123124  1  0  0  0  0
123217  1  0  0  0  0
123218  1  0  0  0  0
124125  1  0  0  0  0
125126  2  0  0  0  0
125127  2  0  0  0  0
125128  1  0  0  0  0
128219  1  0  0  0  0
129130  1  0  0  0  0
129220  1  0  0  0  0
129221  1  0  0  0  0
130131  1  0  0  0  0
131132  2  0  0  0  0
131133  2  0  0  0  0
131134  1  0  0  0  0
134222  1  0  0  0  0
135136  1  0  0  0  0
135223  1  0  0  0  0
135224  1  0  0  0  0
136137  1  0  0  0  0
137138  2  0  0  0  0
137139  2  0  0  0  0
137140  1  0  0  0  0
140225  1  0  0  0  0
141142  1  0  0  0  0
141226  1  0  0  0  0
141227  1  0  0  0  0
142143  1  0  0  0  0
143144  2  0  0  0  0
143145  2  0  0  0  0
143146  1  0  0  0  0
146228  1  0  0  0  0
147148  1  0  0  0  0
148149  2  0  0  0  0
148150  2  0  0  0  0
148151  1  0  0  0  0
151229  1  0  0  0  0
152153  1  0  0  0  0
153154  2  0  0  0  0
153155  2  0  0  0  0
153156  1  0  0  0  0
156230  1  0  0  0  0
157158  1  0  0  0  0
158159  2  0  0  0  0
158160  2  0  0  0  0
158161  1  0  0  0  0
161231  1  0  0  0  0
M  END
