
 OpenBabel10072619573D

 32 33  0  0  0  0  0  0  0  0999 V2000
    1.1383   -0.5472   -2.3296 C   0  0  0  0  0  0  0  0  0  0  0  0
    2.5639   -0.6047   -2.2551 O   0  0  0  0  0  0  0  0  0  0  0  0
    3.0418   -0.8074   -1.0016 C   0  0  0  0  0  0  0  0  0  0  0  0
    2.3673   -0.9317    0.0083 O   0  0  0  0  0  0  0  0  0  0  0  0
    4.5287   -0.8734   -1.0086 C   0  0  0  0  0  0  0  0  0  0  0  0
    5.1855   -1.1654    0.1912 C   0  0  0  0  0  0  0  0  0  0  0  0
    6.5832   -1.2507    0.2353 C   0  0  0  0  0  0  0  0  0  0  0  0
    7.3570   -1.0332   -0.9104 C   0  0  0  0  0  0  0  0  0  0  0  0
    6.6856   -0.7387   -2.1079 C   0  0  0  0  0  0  0  0  0  0  0  0
    5.2884   -0.6577   -2.1618 C   0  0  0  0  0  0  0  0  0  0  0  0
    8.7574   -1.1584   -0.9405 N   0  0  0  0  0  0  0  0  0  0  0  0
    9.5947   -1.7201   -0.0017 C   0  0  0  0  0  0  0  0  0  0  0  0
   10.9426   -1.7989    0.0006 C   0  0  0  0  0  0  0  0  0  0  0  0
   11.6814   -1.2109   -1.0761 C   0  0  0  0  0  0  0  0  0  0  0  0
   12.2519   -0.7226   -1.9616 N   0  0  0  0  0  0  0  0  0  0  0  0
   11.6853   -2.4694    1.0408 C   0  0  0  0  0  0  0  0  0  0  0  0
   12.9143   -2.0387    1.5053 C   0  0  0  0  0  0  0  0  0  0  0  0
   13.5441   -3.0509    2.7352 S   0  0  0  0  0  0  0  0  0  0  0  0
   12.1869   -4.0849    2.6559 C   0  0  0  0  0  0  0  0  0  0  0  0
   11.2696   -3.6633    1.7179 C   0  0  0  0  0  0  0  0  0  0  0  0
    0.8579   -0.4287   -3.3801 H   0  0  0  0  0  0  0  0  0  0  0  0
    0.7625    0.3154   -1.7705 H   0  0  0  0  0  0  0  0  0  0  0  0
    0.6941   -1.4757   -1.9565 H   0  0  0  0  0  0  0  0  0  0  0  0
    4.6136   -1.3319    1.1028 H   0  0  0  0  0  0  0  0  0  0  0  0
    7.0457   -1.4690    1.1929 H   0  0  0  0  0  0  0  0  0  0  0  0
    7.2483   -0.5787   -3.0254 H   0  0  0  0  0  0  0  0  0  0  0  0
    4.8120   -0.4304   -3.1123 H   0  0  0  0  0  0  0  0  0  0  0  0
    9.1992   -0.7731   -1.7731 H   0  0  0  0  0  0  0  0  0  0  0  0
    9.0547   -2.1662    0.8293 H   0  0  0  0  0  0  0  0  0  0  0  0
   13.4896   -1.1751    1.1958 H   0  0  0  0  0  0  0  0  0  0  0  0
   12.1266   -4.9544    3.2967 H   0  0  0  0  0  0  0  0  0  0  0  0
   10.3514   -4.2046    1.5214 H   0  0  0  0  0  0  0  0  0  0  0  0
  1  2  1  0  0  0  0
  1 21  1  0  0  0  0
  1 22  1  0  0  0  0
  1 23  1  0  0  0  0
  2  3  1  0  0  0  0
  3  4  2  0  0  0  0
  3  5  1  0  0  0  0
  5  6  2  0  0  0  0
  5 10  1  0  0  0  0
  6  7  1  0  0  0  0
  6 24  1  0  0  0  0
  7  8  2  0  0  0  0
  7 25  1  0  0  0  0
  8  9  1  0  0  0  0
  8 11  1  0  0  0  0
  9 10  2  0  0  0  0
  9 26  1  0  0  0  0
 10 27  1  0  0  0  0
 11 12  1  0  0  0  0
 11 28  1  0  0  0  0
 12 13  2  0  0  0  0
 12 29  1  0  0  0  0
 13 14  1  0  0  0  0
 13 16  1  0  0  0  0
 14 15  3  0  0  0  0
 16 17  2  0  0  0  0
 16 20  1  0  0  0  0
 17 18  1  0  0  0  0
 17 30  1  0  0  0  0
 18 19  1  0  0  0  0
 19 20  2  0  0  0  0
 19 31  1  0  0  0  0
 20 32  1  0  0  0  0
M  END
