
 OpenBabel10072620013D

112117  0  0  1  0  0  0  0  0999 V2000
    4.4489    0.3664   -3.4977 C   0  0  0  0  0  0  0  0  0  0  0  0
    4.5166    1.8252   -2.9915 C   0  0  0  0  0  0  0  0  0  0  0  0
    5.4074    1.8653   -1.7372 C   0  0  0  0  0  0  0  0  0  0  0  0
    5.2174    2.6558   -4.0956 C   0  0  0  0  0  0  0  0  0  0  0  0
    3.0681    2.3842   -2.7693 C   0  0  1  0  0  0  0  0  0  0  0  0
    2.1464    1.5957   -1.7881 C   0  0  0  0  0  0  0  0  0  0  0  0
    2.5992    0.7482   -1.0160 O   0  0  0  0  0  0  0  0  0  0  0  0
    0.7799    1.8681   -1.8097 N   0  0  0  0  0  0  0  0  0  0  0  0
   -0.0768    1.2324   -0.8170 C   0  0  0  0  0  0  0  0  0  0  0  0
   -1.3261    0.7979   -1.5786 C   0  0  1  0  0  0  0  0  0  0  0  0
   -1.4464    1.8687   -2.6612 C   0  0  0  0  0  0  0  0  0  0  0  0
   -0.0010    2.3035   -2.9727 C   0  0  1  0  0  0  0  0  0  0  0  0
   -0.0420    3.8205   -3.2571 C   0  0  0  0  0  0  0  0  0  0  0  0
    0.3160    4.6763   -2.4523 O   0  0  0  0  0  0  0  0  0  0  0  0
   -0.6226    4.1553   -4.4718 N   0  0  0  0  0  0  0  0  0  0  0  0
   -0.8522    5.5417   -4.8753 C   0  0  3  0  0  0  0  0  0  0  0  0
   -0.9793    5.8217   -6.3755 C   0  0  0  0  0  0  0  0  0  0  0  0
    0.2284    6.3115   -5.6362 C   0  0  3  0  0  0  0  0  0  0  0  0
    1.5260    5.6874   -5.9280 C   0  0  0  0  0  0  0  0  0  0  0  0
    2.6803    5.9995   -5.3254 C   0  0  0  0  0  0  0  0  0  0  0  0
   -1.7754    6.3580   -3.9726 C   0  0  0  0  0  0  0  0  0  0  0  0
   -2.9273    6.5826   -4.3111 O   0  0  0  0  0  0  0  0  0  0  0  0
   -1.2179    6.7537   -2.7560 N   0  0  0  0  0  0  0  0  0  0  0  0
   -2.0073    7.5801   -1.5592 S   0  0  0  0  0  0  0  0  0  0  0  0
   -1.2348    7.4010   -0.3488 O   0  0  0  0  0  0  0  0  0  0  0  0
   -2.3349    8.9002   -2.0514 O   0  0  0  0  0  0  0  0  0  0  0  0
   -3.5173    6.6648   -1.3338 C   0  0  0  0  0  0  0  0  0  0  0  0
   -3.4482    5.3648   -0.8159 C   0  0  0  0  0  0  0  0  0  0  0  0
   -4.6208    4.6214   -0.6632 C   0  0  0  0  0  0  0  0  0  0  0  0
   -5.8541    5.1913   -1.0210 C   0  0  0  0  0  0  0  0  0  0  0  0
   -5.9236    6.5058   -1.5072 C   0  0  0  0  0  0  0  0  0  0  0  0
   -4.7482    7.2469   -1.6622 C   0  0  0  0  0  0  0  0  0  0  0  0
   -7.0821    4.3983   -0.8840 N   0  3  0  0  0  0  0  0  0  0  0  0
   -6.9632    3.2235   -0.5054 O   0  0  0  0  0  0  0  0  0  0  0  0
   -8.1578    4.9412   -1.1708 O   0  5  0  0  0  0  0  0  0  0  0  0
   -1.1039   -0.4898   -2.1674 O   0  0  0  0  0  0  0  0  0  0  0  0
   -2.2033   -1.2449   -2.5140 C   0  0  0  0  0  0  0  0  0  0  0  0
   -3.5027   -0.7415   -2.5634 C   0  0  0  0  0  0  0  0  0  0  0  0
   -4.5420   -1.5709   -2.9650 C   0  0  0  0  0  0  0  0  0  0  0  0
   -4.3245   -2.8580   -3.3244 N   0  0  0  0  0  0  0  0  0  0  0  0
   -3.0764   -3.3597   -3.2714 C   0  0  0  0  0  0  0  0  0  0  0  0
   -1.9662   -2.5912   -2.8688 C   0  0  0  0  0  0  0  0  0  0  0  0
   -0.6880   -3.1961   -2.8317 C   0  0  0  0  0  0  0  0  0  0  0  0
   -0.5165   -4.5428   -3.1638 C   0  0  0  0  0  0  0  0  0  0  0  0
   -1.6135   -5.2958   -3.5631 C   0  0  0  0  0  0  0  0  0  0  0  0
   -2.8704   -4.6867   -3.6289 C   0  0  0  0  0  0  0  0  0  0  0  0
   -1.6039   -6.6178   -3.9120 O   0  0  0  0  0  0  0  0  0  0  0  0
   -0.4091   -7.3447   -3.6591 C   0  0  0  0  0  0  0  0  0  0  0  0
   -5.9338   -1.0860   -3.0722 C   0  0  0  0  0  0  0  0  0  0  0  0
   -6.7354   -1.4645   -4.1634 C   0  0  0  0  0  0  0  0  0  0  0  0
   -8.0353   -0.9729   -4.3200 C   0  0  0  0  0  0  0  0  0  0  0  0
   -8.5683   -0.0964   -3.3805 C   0  0  0  0  0  0  0  0  0  0  0  0
   -7.8028    0.2845   -2.2836 C   0  0  0  0  0  0  0  0  0  0  0  0
   -6.4997   -0.2034   -2.1316 C   0  0  0  0  0  0  0  0  0  0  0  0
    3.0281    3.8071   -2.4486 N   0  0  0  0  0  0  0  0  0  0  0  0
    3.2946    4.3405   -1.2249 C   0  0  0  0  0  0  0  0  0  0  0  0
    3.5612    3.7107   -0.2169 O   0  0  0  0  0  0  0  0  0  0  0  0
    3.1754    5.6849   -1.3084 O   0  0  0  0  0  0  0  0  0  0  0  0
    3.2985    6.5028   -0.1154 C   0  0  0  0  0  0  0  0  0  0  0  0
    4.7045    6.4139    0.4912 C   0  0  0  0  0  0  0  0  0  0  0  0
    3.0591    7.9369   -0.6102 C   0  0  0  0  0  0  0  0  0  0  0  0
    2.2189    6.1542    0.9169 C   0  0  0  0  0  0  0  0  0  0  0  0
    5.4361    0.0164   -3.8229 H   0  0  0  0  0  0  0  0  0  0  0  0
    3.7709    0.2713   -4.3531 H   0  0  0  0  0  0  0  0  0  0  0  0
    4.1088   -0.3239   -2.7200 H   0  0  0  0  0  0  0  0  0  0  0  0
    6.3730    1.3802   -1.9250 H   0  0  0  0  0  0  0  0  0  0  0  0
    4.9505    1.3465   -0.8902 H   0  0  0  0  0  0  0  0  0  0  0  0
    5.6274    2.8927   -1.4317 H   0  0  0  0  0  0  0  0  0  0  0  0
    6.2048    2.2424   -4.3337 H   0  0  0  0  0  0  0  0  0  0  0  0
    5.3660    3.6967   -3.7868 H   0  0  0  0  0  0  0  0  0  0  0  0
    4.6309    2.6593   -5.0215 H   0  0  0  0  0  0  0  0  0  0  0  0
    2.5742    2.3150   -3.7476 H   0  0  0  0  0  0  0  0  0  0  0  0
   -0.3260    2.0064   -0.0813 H   0  0  0  0  0  0  0  0  0  0  0  0
    0.4100    0.3971   -0.3078 H   0  0  0  0  0  0  0  0  0  0  0  0
   -2.1713    0.7715   -0.8805 H   0  0  0  0  0  0  0  0  0  0  0  0
   -2.0309    2.7074   -2.2642 H   0  0  0  0  0  0  0  0  0  0  0  0
   -1.9437    1.5192   -3.5727 H   0  0  0  0  0  0  0  0  0  0  0  0
    0.3861    1.7830   -3.8558 H   0  0  0  0  0  0  0  0  0  0  0  0
   -0.9726    3.4288   -5.0874 H   0  0  0  0  0  0  0  0  0  0  0  0
   -1.6981    6.5706   -6.7022 H   0  0  0  0  0  0  0  0  0  0  0  0
   -0.8662    5.0142   -7.0903 H   0  0  0  0  0  0  0  0  0  0  0  0
    0.2801    7.3870   -5.4747 H   0  0  0  0  0  0  0  0  0  0  0  0
    1.5556    4.9337   -6.7152 H   0  0  0  0  0  0  0  0  0  0  0  0
    2.7292    6.7640   -4.5548 H   0  0  0  0  0  0  0  0  0  0  0  0
    3.6091    5.5124   -5.6047 H   0  0  0  0  0  0  0  0  0  0  0  0
   -0.3613    6.2816   -2.4409 H   0  0  0  0  0  0  0  0  0  0  0  0
   -2.4886    4.9352   -0.5324 H   0  0  0  0  0  0  0  0  0  0  0  0
   -4.5616    3.6103   -0.2646 H   0  0  0  0  0  0  0  0  0  0  0  0
   -6.8749    6.9607   -1.7784 H   0  0  0  0  0  0  0  0  0  0  0  0
   -4.7967    8.2623   -2.0557 H   0  0  0  0  0  0  0  0  0  0  0  0
   -3.7292    0.2927   -2.3409 H   0  0  0  0  0  0  0  0  0  0  0  0
    0.1844   -2.6160   -2.5317 H   0  0  0  0  0  0  0  0  0  0  0  0
    0.4789   -4.9683   -3.0974 H   0  0  0  0  0  0  0  0  0  0  0  0
   -3.7236   -5.2778   -3.9554 H   0  0  0  0  0  0  0  0  0  0  0  0
   -0.5891   -8.3909   -3.9250 H   0  0  0  0  0  0  0  0  0  0  0  0
   -0.1429   -7.3128   -2.5976 H   0  0  0  0  0  0  0  0  0  0  0  0
    0.4101   -6.9818   -4.2864 H   0  0  0  0  0  0  0  0  0  0  0  0
   -6.3418   -2.1553   -4.9075 H   0  0  0  0  0  0  0  0  0  0  0  0
   -8.6306   -1.2813   -5.1749 H   0  0  0  0  0  0  0  0  0  0  0  0
   -9.5830    0.2770   -3.4932 H   0  0  0  0  0  0  0  0  0  0  0  0
   -8.2201    0.9582   -1.5383 H   0  0  0  0  0  0  0  0  0  0  0  0
   -5.9462    0.1045   -1.2472 H   0  0  0  0  0  0  0  0  0  0  0  0
    2.7295    4.4815   -3.1373 H   0  0  0  0  0  0  0  0  0  0  0  0
    5.4716    6.6139   -0.2649 H   0  0  0  0  0  0  0  0  0  0  0  0
    4.9145    5.4184    0.8935 H   0  0  0  0  0  0  0  0  0  0  0  0
    4.8273    7.1277    1.3133 H   0  0  0  0  0  0  0  0  0  0  0  0
    3.8059    8.2171   -1.3626 H   0  0  0  0  0  0  0  0  0  0  0  0
    3.0998    8.6637    0.2078 H   0  0  0  0  0  0  0  0  0  0  0  0
    2.0813    8.0190   -1.1003 H   0  0  0  0  0  0  0  0  0  0  0  0
    2.3661    5.1575    1.3443 H   0  0  0  0  0  0  0  0  0  0  0  0
    1.2245    6.1544    0.4580 H   0  0  0  0  0  0  0  0  0  0  0  0
    2.2201    6.8672    1.7485 H   0  0  0  0  0  0  0  0  0  0  0  0
  1  2  1  0  0  0  0
  1 63  1  0  0  0  0
  1 64  1  0  0  0  0
  1 65  1  0  0  0  0
  2  3  1  0  0  0  0
  2  4  1  0  0  0  0
  2  5  1  0  0  0  0
  3 66  1  0  0  0  0
  3 67  1  0  0  0  0
  3 68  1  0  0  0  0
  4 69  1  0  0  0  0
  4 70  1  0  0  0  0
  4 71  1  0  0  0  0
  5  6  1  0  0  0  0
  5 55  1  0  0  0  0
  5 72  1  6  0  0  0
  6  7  2  0  0  0  0
  6  8  1  0  0  0  0
  8  9  1  0  0  0  0
  8 12  1  0  0  0  0
  9 10  1  0  0  0  0
  9 73  1  0  0  0  0
  9 74  1  0  0  0  0
 10 11  1  0  0  0  0
 10 36  1  0  0  0  0
 10 75  1  1  0  0  0
 11 12  1  0  0  0  0
 11 76  1  0  0  0  0
 11 77  1  0  0  0  0
 12 13  1  0  0  0  0
 12 78  1  6  0  0  0
 13 14  2  0  0  0  0
 13 15  1  0  0  0  0
 15 16  1  0  0  0  0
 15 79  1  0  0  0  0
 16 17  1  0  0  0  0
 16 18  1  0  0  0  0
 16 21  1  0  0  0  0
 17 18  1  0  0  0  0
 17 80  1  0  0  0  0
 17 81  1  0  0  0  0
 18 19  1  0  0  0  0
 18 82  1  0  0  0  0
 19 20  2  0  0  0  0
 19 83  1  0  0  0  0
 20 84  1  0  0  0  0
 20 85  1  0  0  0  0
 21 22  2  0  0  0  0
 21 23  1  0  0  0  0
 23 24  1  0  0  0  0
 23 86  1  0  0  0  0
 24 25  2  0  0  0  0
 24 26  2  0  0  0  0
 24 27  1  0  0  0  0
 27 28  2  0  0  0  0
 27 32  1  0  0  0  0
 28 29  1  0  0  0  0
 28 87  1  0  0  0  0
 29 30  2  0  0  0  0
 29 88  1  0  0  0  0
 30 31  1  0  0  0  0
 30 33  1  0  0  0  0
 31 32  2  0  0  0  0
 31 89  1  0  0  0  0
 32 90  1  0  0  0  0
 33 34  2  0  0  0  0
 33 35  1  0  0  0  0
 36 37  1  0  0  0  0
 37 38  2  0  0  0  0
 37 42  1  0  0  0  0
 38 39  1  0  0  0  0
 38 91  1  0  0  0  0
 39 40  2  0  0  0  0
 39 49  1  0  0  0  0
 40 41  1  0  0  0  0
 41 42  2  0  0  0  0
 41 46  1  0  0  0  0
 42 43  1  0  0  0  0
 43 44  2  0  0  0  0
 43 92  1  0  0  0  0
 44 45  1  0  0  0  0
 44 93  1  0  0  0  0
 45 46  2  0  0  0  0
 45 47  1  0  0  0  0
 46 94  1  0  0  0  0
 47 48  1  0  0  0  0
 48 95  1  0  0  0  0
 48 96  1  0  0  0  0
 48 97  1  0  0  0  0
 49 50  2  0  0  0  0
 49 54  1  0  0  0  0
 50 51  1  0  0  0  0
 50 98  1  0  0  0  0
 51 52  2  0  0  0  0
 51 99  1  0  0  0  0
 52 53  1  0  0  0  0
 52100  1  0  0  0  0
 53 54  2  0  0  0  0
 53101  1  0  0  0  0
 54102  1  0  0  0  0
 55 56  1  0  0  0  0
 55103  1  0  0  0  0
 56 57  2  0  0  0  0
 56 58  1  0  0  0  0
 58 59  1  0  0  0  0
 59 60  1  0  0  0  0
 59 61  1  0  0  0  0
 59 62  1  0  0  0  0
 60104  1  0  0  0  0
 60105  1  0  0  0  0
 60106  1  0  0  0  0
 61107  1  0  0  0  0
 61108  1  0  0  0  0
 61109  1  0  0  0  0
 62110  1  0  0  0  0
 62111  1  0  0  0  0
 62112  1  0  0  0  0
M  CHG  2  33   1  35  -1
M  END
