
 OpenBabel10072616333D

 55 56  0  0  0  0  0  0  0  0999 V2000
    3.1541   -5.5499   -2.6959 C   0  0  0  0  0  0  0  0  0  0  0  0
    3.5628   -4.1259   -2.3531 C   0  0  0  0  0  0  0  0  0  0  0  0
    3.9571   -4.0014   -0.8829 C   0  0  0  0  0  0  0  0  0  0  0  0
    4.3699   -2.5659   -0.5317 C   0  0  0  0  0  0  0  0  0  0  0  0
    4.9238   -2.5205    0.8365 N   0  0  0  0  0  0  0  0  0  0  0  0
    4.1030   -1.8577    1.8712 C   0  0  0  0  0  0  0  0  0  0  0  0
    2.6265   -2.2492    1.8420 C   0  0  0  0  0  0  0  0  0  0  0  0
    6.3045   -2.6947    1.0250 C   0  0  0  0  0  0  0  0  0  0  0  0
    6.9550   -2.4321    2.2482 C   0  0  0  0  0  0  0  0  0  0  0  0
    8.3274   -2.6714    2.4479 C   0  0  0  0  0  0  0  0  0  0  0  0
    9.1014   -3.1904    1.4168 C   0  0  0  0  0  0  0  0  0  0  0  0
    8.5125   -3.4196    0.1803 C   0  0  0  0  0  0  0  0  0  0  0  0
    7.1408   -3.1908    0.0015 C   0  0  0  0  0  0  0  0  0  0  0  0
   10.5411   -3.4316    1.6454 C   0  0  0  0  0  0  0  0  0  0  0  0
   11.2828   -4.4135    1.2204 N   0  0  0  0  0  0  0  0  0  0  0  0
   10.6877   -5.4625    0.5828 N   0  0  0  0  0  0  0  0  0  0  0  0
   11.4232   -6.5167    0.0216 C   0  0  0  0  0  0  0  0  0  0  0  0
   13.0976   -6.5801    0.0234 S   0  0  0  0  0  0  0  0  0  0  0  0
   10.5413   -7.4100   -0.5944 N   0  0  0  0  0  0  0  0  0  0  0  0
   10.7321   -8.7127   -1.1082 C   0  0  0  0  0  0  0  0  0  0  0  0
   11.7692   -9.5654   -0.7263 C   0  0  0  0  0  0  0  0  0  0  0  0
   11.8859  -10.8465   -1.2738 C   0  0  0  0  0  0  0  0  0  0  0  0
   10.9323  -11.2924   -2.1893 C   0  0  0  0  0  0  0  0  0  0  0  0
    9.8700  -10.4674   -2.5519 C   0  0  0  0  0  0  0  0  0  0  0  0
    9.7697   -9.1868   -2.0093 C   0  0  0  0  0  0  0  0  0  0  0  0
   12.8711  -11.7511   -0.9746 O   0  0  0  0  0  0  0  0  0  0  0  0
   13.9697  -11.2482   -0.2186 C   0  0  0  0  0  0  0  0  0  0  0  0
    2.9012   -5.6256   -3.7577 H   0  0  0  0  0  0  0  0  0  0  0  0
    2.2744   -5.8462   -2.1165 H   0  0  0  0  0  0  0  0  0  0  0  0
    3.9610   -6.2605   -2.4855 H   0  0  0  0  0  0  0  0  0  0  0  0
    2.7295   -3.4487   -2.5770 H   0  0  0  0  0  0  0  0  0  0  0  0
    4.4086   -3.8304   -2.9851 H   0  0  0  0  0  0  0  0  0  0  0  0
    4.7749   -4.6993   -0.6665 H   0  0  0  0  0  0  0  0  0  0  0  0
    3.1206   -4.3130   -0.2464 H   0  0  0  0  0  0  0  0  0  0  0  0
    3.4972   -1.9082   -0.6242 H   0  0  0  0  0  0  0  0  0  0  0  0
    5.0757   -2.1597   -1.2672 H   0  0  0  0  0  0  0  0  0  0  0  0
    4.1973   -0.7698    1.7696 H   0  0  0  0  0  0  0  0  0  0  0  0
    4.4387   -2.1343    2.8745 H   0  0  0  0  0  0  0  0  0  0  0  0
    2.1073   -1.8699    0.9568 H   0  0  0  0  0  0  0  0  0  0  0  0
    2.1167   -1.8232    2.7133 H   0  0  0  0  0  0  0  0  0  0  0  0
    2.5007   -3.3361    1.8790 H   0  0  0  0  0  0  0  0  0  0  0  0
    6.4153   -2.0322    3.1018 H   0  0  0  0  0  0  0  0  0  0  0  0
    8.7672   -2.4606    3.4203 H   0  0  0  0  0  0  0  0  0  0  0  0
    9.1089   -3.7596   -0.6624 H   0  0  0  0  0  0  0  0  0  0  0  0
    6.7485   -3.4225   -0.9840 H   0  0  0  0  0  0  0  0  0  0  0  0
   11.0517   -2.6697    2.2606 H   0  0  0  0  0  0  0  0  0  0  0  0
    9.7054   -5.6222    0.7767 H   0  0  0  0  0  0  0  0  0  0  0  0
    9.6657   -6.9814   -0.8614 H   0  0  0  0  0  0  0  0  0  0  0  0
   12.4702   -9.2456    0.0316 H   0  0  0  0  0  0  0  0  0  0  0  0
   11.0155  -12.2886   -2.6134 H   0  0  0  0  0  0  0  0  0  0  0  0
    9.1237  -10.8227   -3.2572 H   0  0  0  0  0  0  0  0  0  0  0  0
    8.9372   -8.5593   -2.3158 H   0  0  0  0  0  0  0  0  0  0  0  0
   14.7198  -12.0408   -0.1415 H   0  0  0  0  0  0  0  0  0  0  0  0
   13.6586  -10.9867    0.7989 H   0  0  0  0  0  0  0  0  0  0  0  0
   14.4380  -10.3948   -0.7218 H   0  0  0  0  0  0  0  0  0  0  0  0
  1  2  1  0  0  0  0
  1 28  1  0  0  0  0
  1 29  1  0  0  0  0
  1 30  1  0  0  0  0
  2  3  1  0  0  0  0
  2 31  1  0  0  0  0
  2 32  1  0  0  0  0
  3  4  1  0  0  0  0
  3 33  1  0  0  0  0
  3 34  1  0  0  0  0
  4  5  1  0  0  0  0
  4 35  1  0  0  0  0
  4 36  1  0  0  0  0
  5  6  1  0  0  0  0
  5  8  1  0  0  0  0
  6  7  1  0  0  0  0
  6 37  1  0  0  0  0
  6 38  1  0  0  0  0
  7 39  1  0  0  0  0
  7 40  1  0  0  0  0
  7 41  1  0  0  0  0
  8  9  2  0  0  0  0
  8 13  1  0  0  0  0
  9 10  1  0  0  0  0
  9 42  1  0  0  0  0
 10 11  2  0  0  0  0
 10 43  1  0  0  0  0
 11 12  1  0  0  0  0
 11 14  1  0  0  0  0
 12 13  2  0  0  0  0
 12 44  1  0  0  0  0
 13 45  1  0  0  0  0
 14 15  2  0  0  0  0
 14 46  1  0  0  0  0
 15 16  1  0  0  0  0
 16 17  1  0  0  0  0
 16 47  1  0  0  0  0
 17 18  2  0  0  0  0
 17 19  1  0  0  0  0
 19 20  1  0  0  0  0
 19 48  1  0  0  0  0
 20 21  2  0  0  0  0
 20 25  1  0  0  0  0
 21 22  1  0  0  0  0
 21 49  1  0  0  0  0
 22 23  2  0  0  0  0
 22 26  1  0  0  0  0
 23 24  1  0  0  0  0
 23 50  1  0  0  0  0
 24 25  2  0  0  0  0
 24 51  1  0  0  0  0
 25 52  1  0  0  0  0
 26 27  1  0  0  0  0
 27 53  1  0  0  0  0
 27 54  1  0  0  0  0
 27 55  1  0  0  0  0
M  END
