
 OpenBabel10072620233D

 34 35  0  0  0  0  0  0  0  0999 V2000
    1.9833   -1.1482   -0.3865 C   0  0  0  0  0  0  0  0  0  0  0  0
    0.6724   -0.4363   -0.3023 C   0  0  0  0  0  0  0  0  0  0  0  0
   -0.5209   -1.1141   -0.1149 C   0  0  0  0  0  0  0  0  0  0  0  0
   -1.7308   -0.5130   -0.0431 N   0  0  0  0  0  0  0  0  0  0  0  0
   -1.7860    0.8312   -0.1652 C   0  0  0  0  0  0  0  0  0  0  0  0
   -0.6438    1.5885   -0.3659 C   0  0  0  0  0  0  0  0  0  0  0  0
    0.5957    0.9468   -0.4340 C   0  0  0  0  0  0  0  0  0  0  0  0
   -3.0913    1.3225   -0.0574 N   0  0  0  0  0  0  0  0  0  0  0  0
   -3.6602    2.5648   -0.0916 C   0  0  0  0  0  0  0  0  0  0  0  0
   -2.9556    4.0637   -0.3125 S   0  0  0  0  0  0  0  0  0  0  0  0
   -5.0370    2.5872    0.0829 N   0  0  0  0  0  0  0  0  0  0  0  0
   -5.9105    1.5286    0.2910 C   0  0  0  0  0  0  0  0  0  0  0  0
   -5.5545    0.3617    0.4161 O   0  0  0  0  0  0  0  0  0  0  0  0
   -7.3536    1.8756    0.4103 C   0  0  0  0  0  0  0  0  0  0  0  0
   -7.9204    2.9654   -0.2667 C   0  0  0  0  0  0  0  0  0  0  0  0
   -9.2841    3.2485   -0.1223 C   0  0  0  0  0  0  0  0  0  0  0  0
  -10.0821    2.4332    0.6937 C   0  0  0  0  0  0  0  0  0  0  0  0
   -9.5271    1.3323    1.3578 C   0  0  0  0  0  0  0  0  0  0  0  0
   -8.1647    1.0547    1.2091 C   0  0  0  0  0  0  0  0  0  0  0  0
  -11.5120    2.7341    0.8484 N   0  3  0  0  0  0  0  0  0  0  0  0
  -11.9587    3.7224    0.2491 O   0  0  0  0  0  0  0  0  0  0  0  0
  -12.1836    1.9851    1.5711 O   0  5  0  0  0  0  0  0  0  0  0  0
    1.8801   -2.2091   -0.1360 H   0  0  0  0  0  0  0  0  0  0  0  0
    2.6988   -0.7102    0.3171 H   0  0  0  0  0  0  0  0  0  0  0  0
    2.3878   -1.0750   -1.4011 H   0  0  0  0  0  0  0  0  0  0  0  0
   -0.5484   -2.1955   -0.0106 H   0  0  0  0  0  0  0  0  0  0  0  0
   -0.6585    2.6620   -0.4716 H   0  0  0  0  0  0  0  0  0  0  0  0
    1.4948    1.5383   -0.5890 H   0  0  0  0  0  0  0  0  0  0  0  0
   -3.7379    0.5479    0.1009 H   0  0  0  0  0  0  0  0  0  0  0  0
   -5.4083    3.5268    0.0885 H   0  0  0  0  0  0  0  0  0  0  0  0
   -7.3312    3.5888   -0.9349 H   0  0  0  0  0  0  0  0  0  0  0  0
   -9.7093    4.0968   -0.6568 H   0  0  0  0  0  0  0  0  0  0  0  0
  -10.1343    0.6841    1.9875 H   0  0  0  0  0  0  0  0  0  0  0  0
   -7.7352    0.1934    1.7212 H   0  0  0  0  0  0  0  0  0  0  0  0
  1  2  1  0  0  0  0
  1 23  1  0  0  0  0
  1 24  1  0  0  0  0
  1 25  1  0  0  0  0
  2  3  2  0  0  0  0
  2  7  1  0  0  0  0
  3  4  1  0  0  0  0
  3 26  1  0  0  0  0
  4  5  2  0  0  0  0
  5  6  1  0  0  0  0
  5  8  1  0  0  0  0
  6  7  2  0  0  0  0
  6 27  1  0  0  0  0
  7 28  1  0  0  0  0
  8  9  1  0  0  0  0
  8 29  1  0  0  0  0
  9 10  2  0  0  0  0
  9 11  1  0  0  0  0
 11 12  1  0  0  0  0
 11 30  1  0  0  0  0
 12 13  2  0  0  0  0
 12 14  1  0  0  0  0
 14 15  2  0  0  0  0
 14 19  1  0  0  0  0
 15 16  1  0  0  0  0
 15 31  1  0  0  0  0
 16 17  2  0  0  0  0
 16 32  1  0  0  0  0
 17 18  1  0  0  0  0
 17 20  1  0  0  0  0
 18 19  2  0  0  0  0
 18 33  1  0  0  0  0
 19 34  1  0  0  0  0
 20 21  2  0  0  0  0
 20 22  1  0  0  0  0
M  CHG  2  20   1  22  -1
M  END
