
 OpenBabel10072620103D

 43 44  0  0  0  0  0  0  0  0999 V2000
    1.7555    0.5214    0.0905 C   0  0  0  0  0  0  0  0  0  0  0  0
    3.1201   -0.1022    0.1512 C   0  0  0  0  0  0  0  0  0  0  0  0
    3.3891   -1.4313    0.0795 C   0  0  0  0  0  0  0  0  0  0  0  0
    5.1446   -1.6695   -0.0135 S   0  0  0  0  0  0  0  0  0  0  0  0
    5.4825    0.0604    0.1568 C   0  0  0  0  0  0  0  0  0  0  0  0
    6.6431    0.6245    0.2003 N   0  0  0  0  0  0  0  0  0  0  0  0
    8.0016   -0.2308    0.0513 S   0  0  0  0  0  0  0  0  0  0  0  0
    8.1198   -1.1590    1.1538 O   0  0  0  0  0  0  0  0  0  0  0  0
    8.1489   -0.6380   -1.3286 O   0  0  0  0  0  0  0  0  0  0  0  0
    9.3036    0.9433    0.3284 C   0  0  0  0  0  0  0  0  0  0  0  0
   10.6311    0.5154    0.3647 C   0  0  0  0  0  0  0  0  0  0  0  0
   11.6761    1.4117    0.6267 C   0  0  0  0  0  0  0  0  0  0  0  0
   11.3788    2.7546    0.8635 C   0  0  0  0  0  0  0  0  0  0  0  0
   10.0499    3.1853    0.8376 C   0  0  0  0  0  0  0  0  0  0  0  0
    9.0099    2.2920    0.5670 C   0  0  0  0  0  0  0  0  0  0  0  0
    9.6890    4.8370    1.1544 Cl  0  0  0  0  0  0  0  0  0  0  0  0
   10.9908   -0.8685    0.1414 N   0  3  0  0  0  0  0  0  0  0  0  0
   11.1095   -1.2312   -1.0324 O   0  0  0  0  0  0  0  0  0  0  0  0
   11.2461   -1.5420    1.1463 O   0  5  0  0  0  0  0  0  0  0  0  0
    4.2624    0.7236    0.2404 N   0  0  0  0  0  0  0  0  0  0  0  0
    4.2182    2.1744    0.3266 C   0  0  0  0  0  0  0  0  0  0  0  0
    2.4503   -2.6529    0.0626 C   0  0  0  0  0  0  0  0  0  0  0  0
    2.0442   -2.9646   -1.3904 C   0  0  0  0  0  0  0  0  0  0  0  0
    3.1231   -3.9183    0.6594 C   0  0  0  0  0  0  0  0  0  0  0  0
    1.1706   -2.4391    0.9056 C   0  0  0  0  0  0  0  0  0  0  0  0
    1.0882   -0.0354   -0.5734 H   0  0  0  0  0  0  0  0  0  0  0  0
    1.7853    1.5302   -0.3320 H   0  0  0  0  0  0  0  0  0  0  0  0
    1.3169    0.5893    1.0908 H   0  0  0  0  0  0  0  0  0  0  0  0
   12.7092    1.0699    0.6541 H   0  0  0  0  0  0  0  0  0  0  0  0
   12.1841    3.4566    1.0727 H   0  0  0  0  0  0  0  0  0  0  0  0
    7.9854    2.6547    0.5582 H   0  0  0  0  0  0  0  0  0  0  0  0
    5.1664    2.5976    0.6738 H   0  0  0  0  0  0  0  0  0  0  0  0
    3.4572    2.5016    1.0424 H   0  0  0  0  0  0  0  0  0  0  0  0
    3.9967    2.6023   -0.6565 H   0  0  0  0  0  0  0  0  0  0  0  0
    2.9188   -3.1698   -2.0188 H   0  0  0  0  0  0  0  0  0  0  0  0
    1.5001   -2.1286   -1.8443 H   0  0  0  0  0  0  0  0  0  0  0  0
    1.3916   -3.8447   -1.4389 H   0  0  0  0  0  0  0  0  0  0  0  0
    3.9499   -4.2810    0.0382 H   0  0  0  0  0  0  0  0  0  0  0  0
    2.4117   -4.7495    0.7378 H   0  0  0  0  0  0  0  0  0  0  0  0
    3.5068   -3.7239    1.6679 H   0  0  0  0  0  0  0  0  0  0  0  0
    0.4624   -1.7561    0.4313 H   0  0  0  0  0  0  0  0  0  0  0  0
    1.4119   -2.0500    1.9015 H   0  0  0  0  0  0  0  0  0  0  0  0
    0.6216   -3.3795    1.0432 H   0  0  0  0  0  0  0  0  0  0  0  0
  1  2  1  0  0  0  0
  1 26  1  0  0  0  0
  1 27  1  0  0  0  0
  1 28  1  0  0  0  0
  2  3  2  0  0  0  0
  2 20  1  0  0  0  0
  3  4  1  0  0  0  0
  3 22  1  0  0  0  0
  4  5  1  0  0  0  0
  5  6  2  0  0  0  0
  5 20  1  0  0  0  0
  6  7  1  0  0  0  0
  7  8  2  0  0  0  0
  7  9  2  0  0  0  0
  7 10  1  0  0  0  0
 10 11  2  0  0  0  0
 10 15  1  0  0  0  0
 11 12  1  0  0  0  0
 11 17  1  0  0  0  0
 12 13  2  0  0  0  0
 12 29  1  0  0  0  0
 13 14  1  0  0  0  0
 13 30  1  0  0  0  0
 14 15  2  0  0  0  0
 14 16  1  0  0  0  0
 15 31  1  0  0  0  0
 17 18  2  0  0  0  0
 17 19  1  0  0  0  0
 20 21  1  0  0  0  0
 21 32  1  0  0  0  0
 21 33  1  0  0  0  0
 21 34  1  0  0  0  0
 22 23  1  0  0  0  0
 22 24  1  0  0  0  0
 22 25  1  0  0  0  0
 23 35  1  0  0  0  0
 23 36  1  0  0  0  0
 23 37  1  0  0  0  0
 24 38  1  0  0  0  0
 24 39  1  0  0  0  0
 24 40  1  0  0  0  0
 25 41  1  0  0  0  0
 25 42  1  0  0  0  0
 25 43  1  0  0  0  0
M  CHG  2  17   1  19  -1
M  END
