
 OpenBabel10072619513D

 61 64  0  0  0  0  0  0  0  0999 V2000
    1.5588    1.7392   -0.8762 C   0  0  0  0  0  0  0  0  0  0  0  0
    1.7965    0.3536   -1.4527 C   0  0  0  0  0  0  0  0  0  0  0  0
    0.5543   -0.2439   -1.8525 O   0  0  0  0  0  0  0  0  0  0  0  0
   -0.4115   -0.0912   -0.8928 C   0  0  0  0  0  0  0  0  0  0  0  0
   -0.3101    0.8249    0.1533 C   0  0  0  0  0  0  0  0  0  0  0  0
    0.7571    1.6675    0.3110 O   0  0  0  0  0  0  0  0  0  0  0  0
   -1.3242    0.9078    1.1061 C   0  0  0  0  0  0  0  0  0  0  0  0
   -2.4617    0.0984    0.9992 C   0  0  0  0  0  0  0  0  0  0  0  0
   -2.5779   -0.8060   -0.0635 C   0  0  0  0  0  0  0  0  0  0  0  0
   -1.5440   -0.8968   -1.0083 C   0  0  0  0  0  0  0  0  0  0  0  0
   -3.7690   -1.6991   -0.2312 C   0  0  0  0  0  0  0  0  0  0  0  0
   -3.5815   -2.8567   -0.8009 N   0  0  0  0  0  0  0  0  0  0  0  0
   -4.6710   -3.6494   -1.0010 N   0  0  0  0  0  0  0  0  0  0  0  0
   -4.4069   -5.0541   -1.1271 C   0  0  0  0  0  0  0  0  0  0  0  0
   -5.2420   -5.9244   -1.8746 C   0  0  0  0  0  0  0  0  0  0  0  0
   -5.0061   -7.3109   -1.9222 C   0  0  0  0  0  0  0  0  0  0  0  0
   -3.9397   -7.8458   -1.1901 C   0  0  0  0  0  0  0  0  0  0  0  0
   -3.1229   -7.0153   -0.4139 C   0  0  0  0  0  0  0  0  0  0  0  0
   -3.3649   -5.6361   -0.3812 C   0  0  0  0  0  0  0  0  0  0  0  0
   -3.6831   -9.2927   -1.2257 N   0  3  0  0  0  0  0  0  0  0  0  0
   -4.3722   -9.9746   -1.9956 O   0  0  0  0  0  0  0  0  0  0  0  0
   -2.7958   -9.7346   -0.4854 O   0  5  0  0  0  0  0  0  0  0  0  0
   -6.3760   -5.3923   -2.6458 N   0  3  0  0  0  0  0  0  0  0  0  0
   -6.4131   -4.1619   -2.8389 O   0  0  0  0  0  0  0  0  0  0  0  0
   -7.2342   -6.1874   -3.0424 O   0  5  0  0  0  0  0  0  0  0  0  0
   -5.1273   -1.1824    0.2118 C   0  0  0  0  0  0  0  0  0  0  0  0
   -5.6359   -0.0941   -0.6645 N   0  3  0  0  0  0  0  0  0  0  0  0
   -5.6496   -0.2516   -2.0122 C   0  0  0  0  0  0  0  0  0  0  0  0
   -6.1847    0.7239   -2.8456 C   0  0  0  0  0  0  0  0  0  0  0  0
   -6.7314    1.8692   -2.2789 C   0  0  0  0  0  0  0  0  0  0  0  0
   -6.7257    2.0138   -0.8926 C   0  0  0  0  0  0  0  0  0  0  0  0
   -6.1676    1.0184   -0.1024 C   0  0  0  0  0  0  0  0  0  0  0  0
   -7.3877    2.9221   -3.0907 C   0  0  0  0  0  0  0  0  0  0  0  0
   -8.2791    3.5935   -2.5837 O   0  0  0  0  0  0  0  0  0  0  0  0
   -6.9206    3.1143   -4.3726 N   0  0  0  0  0  0  0  0  0  0  0  0
   -7.4141    4.2376   -5.1600 C   0  0  0  0  0  0  0  0  0  0  0  0
   -6.7087    5.5517   -4.8000 C   0  0  0  0  0  0  0  0  0  0  0  0
   -6.7964    5.8525   -3.4087 O   0  0  0  0  0  0  0  0  0  0  0  0
    1.0484    2.3887   -1.5976 H   0  0  0  0  0  0  0  0  0  0  0  0
    2.5102    2.2090   -0.6093 H   0  0  0  0  0  0  0  0  0  0  0  0
    2.2855   -0.3080   -0.7272 H   0  0  0  0  0  0  0  0  0  0  0  0
    2.4353    0.4161   -2.3394 H   0  0  0  0  0  0  0  0  0  0  0  0
   -1.2211    1.6066    1.9348 H   0  0  0  0  0  0  0  0  0  0  0  0
   -3.2062    0.1813    1.7840 H   0  0  0  0  0  0  0  0  0  0  0  0
   -1.5984   -1.6001   -1.8367 H   0  0  0  0  0  0  0  0  0  0  0  0
   -5.2443   -3.3866   -1.8177 H   0  0  0  0  0  0  0  0  0  0  0  0
   -5.6465   -7.9636   -2.5161 H   0  0  0  0  0  0  0  0  0  0  0  0
   -2.3000   -7.4211    0.1751 H   0  0  0  0  0  0  0  0  0  0  0  0
   -2.7272   -5.0125    0.2440 H   0  0  0  0  0  0  0  0  0  0  0  0
   -5.0806   -0.8186    1.2419 H   0  0  0  0  0  0  0  0  0  0  0  0
   -5.8991   -1.9576    0.1889 H   0  0  0  0  0  0  0  0  0  0  0  0
   -5.2386   -1.1682   -2.4253 H   0  0  0  0  0  0  0  0  0  0  0  0
   -6.2067    0.5566   -3.9197 H   0  0  0  0  0  0  0  0  0  0  0  0
   -7.1664    2.8963   -0.4294 H   0  0  0  0  0  0  0  0  0  0  0  0
   -6.1593    1.1013    0.9819 H   0  0  0  0  0  0  0  0  0  0  0  0
   -6.0323    2.7230   -4.6541 H   0  0  0  0  0  0  0  0  0  0  0  0
   -8.4909    4.3325   -4.9819 H   0  0  0  0  0  0  0  0  0  0  0  0
   -7.2577    3.9976   -6.2158 H   0  0  0  0  0  0  0  0  0  0  0  0
   -7.1486    6.3823   -5.3603 H   0  0  0  0  0  0  0  0  0  0  0  0
   -5.6456    5.4905   -5.0542 H   0  0  0  0  0  0  0  0  0  0  0  0
   -7.6356    5.4738   -3.0735 H   0  0  0  0  0  0  0  0  0  0  0  0
  1  2  1  0  0  0  0
  1  6  1  0  0  0  0
  1 39  1  0  0  0  0
  1 40  1  0  0  0  0
  2  3  1  0  0  0  0
  2 41  1  0  0  0  0
  2 42  1  0  0  0  0
  3  4  1  0  0  0  0
  4  5  2  0  0  0  0
  4 10  1  0  0  0  0
  5  6  1  0  0  0  0
  5  7  1  0  0  0  0
  7  8  2  0  0  0  0
  7 43  1  0  0  0  0
  8  9  1  0  0  0  0
  8 44  1  0  0  0  0
  9 10  2  0  0  0  0
  9 11  1  0  0  0  0
 10 45  1  0  0  0  0
 11 12  2  0  0  0  0
 11 26  1  0  0  0  0
 12 13  1  0  0  0  0
 13 14  1  0  0  0  0
 13 46  1  0  0  0  0
 14 15  2  0  0  0  0
 14 19  1  0  0  0  0
 15 16  1  0  0  0  0
 15 23  1  0  0  0  0
 16 17  2  0  0  0  0
 16 47  1  0  0  0  0
 17 18  1  0  0  0  0
 17 20  1  0  0  0  0
 18 19  2  0  0  0  0
 18 48  1  0  0  0  0
 19 49  1  0  0  0  0
 20 21  2  0  0  0  0
 20 22  1  0  0  0  0
 23 24  2  0  0  0  0
 23 25  1  0  0  0  0
 26 27  1  0  0  0  0
 26 50  1  0  0  0  0
 26 51  1  0  0  0  0
 27 28  2  0  0  0  0
 27 32  1  0  0  0  0
 28 29  1  0  0  0  0
 28 52  1  0  0  0  0
 29 30  2  0  0  0  0
 29 53  1  0  0  0  0
 30 31  1  0  0  0  0
 30 33  1  0  0  0  0
 31 32  2  0  0  0  0
 31 54  1  0  0  0  0
 32 55  1  0  0  0  0
 33 34  2  0  0  0  0
 33 35  1  0  0  0  0
 35 36  1  0  0  0  0
 35 56  1  0  0  0  0
 36 37  1  0  0  0  0
 36 57  1  0  0  0  0
 36 58  1  0  0  0  0
 37 38  1  0  0  0  0
 37 59  1  0  0  0  0
 37 60  1  0  0  0  0
 38 61  1  0  0  0  0
M  CHG  5  20   1  22  -1  23   1  25  -1  27   1
M  END
