
 OpenBabel10072620003D

 84 88  0  0  1  0  0  0  0  0999 V2000
   19.7987    0.5451   -5.4721 C   0  0  0  0  0  0  0  0  0  0  0  0
   19.3871   -0.8401   -6.0096 C   0  0  0  0  0  0  0  0  0  0  0  0
   18.1071   -1.2550   -5.3280 C   0  0  0  0  0  0  0  0  0  0  0  0
   17.0672   -1.2498   -6.1729 C   0  0  0  0  0  0  0  0  0  0  0  0
   17.5208   -0.8250   -7.5739 C   0  0  0  0  0  0  0  0  0  0  0  0
   19.0179   -0.9420   -7.4380 N   0  0  0  0  0  0  0  0  0  0  0  0
   19.7432   -0.0837   -8.2641 O   0  5  0  0  0  0  0  0  0  0  0  0
   16.9918    0.5902   -7.8942 C   0  0  0  0  0  0  0  0  0  0  0  0
   17.1285   -1.8243   -8.6785 C   0  0  0  0  0  0  0  0  0  0  0  0
   15.8177   -1.6179   -5.7330 N   0  0  0  0  0  0  0  0  0  0  0  0
   14.6164   -1.6375   -6.3970 C   0  0  0  0  0  0  0  0  0  0  0  0
   14.3458   -1.2147   -7.5163 O   0  0  0  0  0  0  0  0  0  0  0  0
   13.6444   -2.3081   -5.6565 N   0  0  0  0  0  0  0  0  0  0  0  0
   12.4240   -2.4800   -6.3108 N   0  0  0  0  0  0  0  0  0  0  0  0
   11.2470   -2.4214   -5.6155 C   0  0  0  0  0  0  0  0  0  0  0  0
   11.2025   -2.3389   -4.3869 O   0  0  0  0  0  0  0  0  0  0  0  0
    9.9638   -2.4175   -6.4559 C   0  0  2  0  0  0  0  0  0  0  0  0
    9.9306   -3.4564   -7.6119 C   0  0  1  0  0  0  0  0  0  0  0  0
   10.5856   -2.9676   -8.9083 C   0  0  0  0  0  0  0  0  0  0  0  0
   10.8389   -3.8738   -9.9619 C   0  0  0  0  0  0  0  0  0  0  0  0
   11.4534   -3.4109  -11.1067 C   0  0  0  0  0  0  0  0  0  0  0  0
   11.7972   -2.0936  -11.2559 C   0  0  0  0  0  0  0  0  0  0  0  0
   11.5154   -1.1601  -10.2868 C   0  0  0  0  0  0  0  0  0  0  0  0
   10.8796   -1.5866   -9.1040 C   0  0  0  0  0  0  0  0  0  0  0  0
   10.5384   -0.5243   -8.0791 C   0  0  1  0  0  0  0  0  0  0  0  0
    9.5905   -1.0161   -6.9733 C   0  0  3  0  0  0  0  0  0  0  0  0
    9.4557   -0.0202   -5.8145 C   0  0  0  0  0  0  0  0  0  0  0  0
    8.9456    1.2200   -6.2893 O   0  0  0  0  0  0  0  0  0  0  0  0
   11.7121    0.0286   -7.4972 O   0  0  0  0  0  0  0  0  0  0  0  0
   12.4015   -1.8413  -12.4458 O   0  0  0  0  0  0  0  0  0  0  0  0
   12.4639   -3.1706  -13.0001 C   0  0  0  0  0  0  0  0  0  0  0  0
   11.7880   -4.1595  -12.1922 O   0  0  0  0  0  0  0  0  0  0  0  0
   10.3389   -4.8366   -7.0881 C   0  0  0  0  0  0  0  0  0  0  0  0
    9.4191   -5.5754   -6.3342 C   0  0  0  0  0  0  0  0  0  0  0  0
    9.7996   -6.7770   -5.7283 C   0  0  0  0  0  0  0  0  0  0  0  0
   11.0832   -7.3156   -5.9239 C   0  0  0  0  0  0  0  0  0  0  0  0
   12.0217   -6.5867   -6.6613 C   0  0  0  0  0  0  0  0  0  0  0  0
   11.6361   -5.3597   -7.2293 C   0  0  0  0  0  0  0  0  0  0  0  0
   13.3319   -6.8861   -6.9215 O   0  0  0  0  0  0  0  0  0  0  0  0
   13.8866   -8.0918   -6.4202 C   0  0  0  0  0  0  0  0  0  0  0  0
   11.4344   -8.4881   -5.3045 O   0  0  0  0  0  0  0  0  0  0  0  0
   10.7660   -9.6121   -5.8823 C   0  0  0  0  0  0  0  0  0  0  0  0
    8.8896   -7.4455   -4.9459 O   0  0  0  0  0  0  0  0  0  0  0  0
    8.6800   -6.7501   -3.7141 C   0  0  0  0  0  0  0  0  0  0  0  0
   20.4938   -1.8639   -5.7023 C   0  0  0  0  0  0  0  0  0  0  0  0
   19.0443    1.3109   -5.6791 H   0  0  0  0  0  0  0  0  0  0  0  0
   20.7472    0.8829   -5.9041 H   0  0  0  0  0  0  0  0  0  0  0  0
   19.9352    0.5182   -4.3843 H   0  0  0  0  0  0  0  0  0  0  0  0
   18.0711   -1.5052   -4.2801 H   0  0  0  0  0  0  0  0  0  0  0  0
   17.3281    1.3313   -7.1611 H   0  0  0  0  0  0  0  0  0  0  0  0
   15.8986    0.6252   -7.8929 H   0  0  0  0  0  0  0  0  0  0  0  0
   17.3123    0.9285   -8.8863 H   0  0  0  0  0  0  0  0  0  0  0  0
   17.3464   -2.8579   -8.3849 H   0  0  0  0  0  0  0  0  0  0  0  0
   17.6719   -1.6229   -9.6099 H   0  0  0  0  0  0  0  0  0  0  0  0
   16.0699   -1.7716   -8.9375 H   0  0  0  0  0  0  0  0  0  0  0  0
   15.7918   -1.9783   -4.7915 H   0  0  0  0  0  0  0  0  0  0  0  0
   13.5871   -2.1739   -4.6520 H   0  0  0  0  0  0  0  0  0  0  0  0
   12.4778   -2.3126   -7.3123 H   0  0  0  0  0  0  0  0  0  0  0  0
    9.1770   -2.7200   -5.7448 H   0  0  0  0  0  0  0  0  0  0  0  0
    8.8717   -3.5509   -7.9028 H   0  0  0  0  0  0  0  0  0  0  0  0
   10.5872   -4.9272   -9.8858 H   0  0  0  0  0  0  0  0  0  0  0  0
   11.7813   -0.1187  -10.4433 H   0  0  0  0  0  0  0  0  0  0  0  0
   10.0353    0.2956   -8.6096 H   0  0  0  0  0  0  0  0  0  0  0  0
    8.5957   -1.0989   -7.4378 H   0  0  0  0  0  0  0  0  0  0  0  0
   10.4002    0.1679   -5.2942 H   0  0  0  0  0  0  0  0  0  0  0  0
    8.7446   -0.4002   -5.0738 H   0  0  0  0  0  0  0  0  0  0  0  0
    9.7116    1.7078   -6.6462 H   0  0  0  0  0  0  0  0  0  0  0  0
   12.5192   -0.2579   -7.9769 H   0  0  0  0  0  0  0  0  0  0  0  0
   13.5151   -3.4648  -13.1083 H   0  0  0  0  0  0  0  0  0  0  0  0
   11.9982   -3.1508  -13.9920 H   0  0  0  0  0  0  0  0  0  0  0  0
    8.4110   -5.1986   -6.1818 H   0  0  0  0  0  0  0  0  0  0  0  0
   12.4010   -4.8069   -7.7751 H   0  0  0  0  0  0  0  0  0  0  0  0
   14.9387   -8.1232   -6.7254 H   0  0  0  0  0  0  0  0  0  0  0  0
   13.3986   -8.9647   -6.8656 H   0  0  0  0  0  0  0  0  0  0  0  0
   13.8686   -8.1227   -5.3258 H   0  0  0  0  0  0  0  0  0  0  0  0
   11.4218  -10.4810   -5.7543 H   0  0  0  0  0  0  0  0  0  0  0  0
   10.5783   -9.4900   -6.9570 H   0  0  0  0  0  0  0  0  0  0  0  0
    9.8302   -9.8152   -5.3513 H   0  0  0  0  0  0  0  0  0  0  0  0
    8.2951   -7.4721   -2.9877 H   0  0  0  0  0  0  0  0  0  0  0  0
    7.9282   -5.9637   -3.8437 H   0  0  0  0  0  0  0  0  0  0  0  0
    9.6061   -6.3254   -3.3081 H   0  0  0  0  0  0  0  0  0  0  0  0
   20.7063   -1.9050   -4.6268 H   0  0  0  0  0  0  0  0  0  0  0  0
   21.4295   -1.6076   -6.2132 H   0  0  0  0  0  0  0  0  0  0  0  0
   20.2105   -2.8772   -6.0140 H   0  0  0  0  0  0  0  0  0  0  0  0
  1  2  1  0  0  0  0
  1 46  1  0  0  0  0
  1 47  1  0  0  0  0
  1 48  1  0  0  0  0
  2  3  1  0  0  0  0
  2  6  1  0  0  0  0
  2 45  1  0  0  0  0
  3  4  2  0  0  0  0
  3 49  1  0  0  0  0
  4  5  1  0  0  0  0
  4 10  1  0  0  0  0
  5  6  1  0  0  0  0
  5  8  1  0  0  0  0
  5  9  1  0  0  0  0
  6  7  1  0  0  0  0
  8 50  1  0  0  0  0
  8 51  1  0  0  0  0
  8 52  1  0  0  0  0
  9 53  1  0  0  0  0
  9 54  1  0  0  0  0
  9 55  1  0  0  0  0
 10 11  1  0  0  0  0
 10 56  1  0  0  0  0
 11 12  2  0  0  0  0
 11 13  1  0  0  0  0
 13 14  1  0  0  0  0
 13 57  1  0  0  0  0
 14 15  1  0  0  0  0
 14 58  1  0  0  0  0
 15 16  2  0  0  0  0
 17 18  1  0  0  0  0
 17 26  1  0  0  0  0
 17 15  1  0  0  0  0
 17 59  1  1  0  0  0
 18 19  1  0  0  0  0
 18 33  1  0  0  0  0
 18 60  1  6  0  0  0
 19 20  2  0  0  0  0
 19 24  1  0  0  0  0
 20 21  1  0  0  0  0
 20 61  1  0  0  0  0
 21 22  2  0  0  0  0
 21 32  1  0  0  0  0
 22 23  1  0  0  0  0
 22 30  1  0  0  0  0
 23 24  2  0  0  0  0
 23 62  1  0  0  0  0
 24 25  1  0  0  0  0
 25 26  1  0  0  0  0
 25 29  1  0  0  0  0
 25 63  1  6  0  0  0
 26 27  1  0  0  0  0
 26 64  1  0  0  0  0
 27 28  1  0  0  0  0
 27 65  1  0  0  0  0
 27 66  1  0  0  0  0
 28 67  1  0  0  0  0
 29 68  1  0  0  0  0
 30 31  1  0  0  0  0
 31 32  1  0  0  0  0
 31 69  1  0  0  0  0
 31 70  1  0  0  0  0
 33 34  2  0  0  0  0
 33 38  1  0  0  0  0
 34 35  1  0  0  0  0
 34 71  1  0  0  0  0
 35 36  2  0  0  0  0
 35 43  1  0  0  0  0
 36 37  1  0  0  0  0
 36 41  1  0  0  0  0
 37 38  2  0  0  0  0
 37 39  1  0  0  0  0
 38 72  1  0  0  0  0
 39 40  1  0  0  0  0
 40 73  1  0  0  0  0
 40 74  1  0  0  0  0
 40 75  1  0  0  0  0
 41 42  1  0  0  0  0
 42 76  1  0  0  0  0
 42 77  1  0  0  0  0
 42 78  1  0  0  0  0
 43 44  1  0  0  0  0
 44 79  1  0  0  0  0
 44 80  1  0  0  0  0
 44 81  1  0  0  0  0
 45 82  1  0  0  0  0
 45 83  1  0  0  0  0
 45 84  1  0  0  0  0
M  CHG  1   7  -1
M  END
