
 OpenBabel10072619563D

 47 49  0  0  0  0  0  0  0  0999 V2000
    3.8376   -3.0411   -4.8345 C   0  0  0  0  0  0  0  0  0  0  0  0
    2.6073   -3.4952   -4.1043 C   0  0  0  0  0  0  0  0  0  0  0  0
    1.7480   -4.4137   -4.6800 C   0  0  0  0  0  0  0  0  0  0  0  0
    0.6267   -4.7666   -3.9490 C   0  0  0  0  0  0  0  0  0  0  0  0
    0.3662   -4.2392   -2.7377 N   0  0  0  0  0  0  0  0  0  0  0  0
    1.2682   -3.3684   -2.2778 C   0  0  0  0  0  0  0  0  0  0  0  0
    2.3862   -2.9711   -2.8853 N   0  0  0  0  0  0  0  0  0  0  0  0
    1.0207   -2.9345   -0.9800 N   0  0  0  0  0  0  0  0  0  0  0  0
    1.9429   -3.6917    0.1966 S   0  0  0  0  0  0  0  0  0  0  0  0
    3.3485   -3.4014    0.0150 O   0  0  0  0  0  0  0  0  0  0  0  0
    1.2858   -3.4004    1.4564 O   0  0  0  0  0  0  0  0  0  0  0  0
    1.6955   -5.4308   -0.1137 C   0  0  0  0  0  0  0  0  0  0  0  0
    2.6072   -6.1492   -0.8893 C   0  0  0  0  0  0  0  0  0  0  0  0
    2.3705   -7.5027   -1.1615 C   0  0  0  0  0  0  0  0  0  0  0  0
    1.2496   -8.1507   -0.6367 C   0  0  0  0  0  0  0  0  0  0  0  0
    0.3510   -7.4130    0.1474 C   0  0  0  0  0  0  0  0  0  0  0  0
    0.5727   -6.0623    0.4209 C   0  0  0  0  0  0  0  0  0  0  0  0
    0.8964   -9.4899   -0.9108 N   0  0  0  0  0  0  0  0  0  0  0  0
    1.6500  -10.5786   -1.3635 C   0  0  0  0  0  0  0  0  0  0  0  0
    3.3125  -10.7296   -1.2793 S   0  0  0  0  0  0  0  0  0  0  0  0
    0.7584  -11.5142   -1.8973 N   0  0  0  0  0  0  0  0  0  0  0  0
    0.9198  -12.8742   -2.2433 C   0  0  0  0  0  0  0  0  0  0  0  0
    1.8572  -13.7372   -1.6737 C   0  0  0  0  0  0  0  0  0  0  0  0
    1.9082  -15.0848   -2.0548 C   0  0  0  0  0  0  0  0  0  0  0  0
    1.0154  -15.5818   -3.0025 C   0  0  0  0  0  0  0  0  0  0  0  0
    0.0661  -14.7342   -3.5671 C   0  0  0  0  0  0  0  0  0  0  0  0
    0.0142  -13.3917   -3.1810 C   0  0  0  0  0  0  0  0  0  0  0  0
   -0.3312   -5.7912   -4.4803 C   0  0  0  0  0  0  0  0  0  0  0  0
    3.5621   -2.5112   -5.7522 H   0  0  0  0  0  0  0  0  0  0  0  0
    4.4614   -3.9023   -5.0907 H   0  0  0  0  0  0  0  0  0  0  0  0
    4.4329   -2.3628   -4.2147 H   0  0  0  0  0  0  0  0  0  0  0  0
    1.9418   -4.8368   -5.6580 H   0  0  0  0  0  0  0  0  0  0  0  0
    0.0334   -3.0084   -0.7609 H   0  0  0  0  0  0  0  0  0  0  0  0
    3.4863   -5.6635   -1.3102 H   0  0  0  0  0  0  0  0  0  0  0  0
    3.0715   -8.0110   -1.8138 H   0  0  0  0  0  0  0  0  0  0  0  0
   -0.5365   -7.8804    0.5665 H   0  0  0  0  0  0  0  0  0  0  0  0
   -0.1291   -5.5149    1.0456 H   0  0  0  0  0  0  0  0  0  0  0  0
   -0.0147   -9.7655   -0.5667 H   0  0  0  0  0  0  0  0  0  0  0  0
   -0.0687  -11.0799   -2.2929 H   0  0  0  0  0  0  0  0  0  0  0  0
    2.5437  -13.4082   -0.8998 H   0  0  0  0  0  0  0  0  0  0  0  0
    2.6432  -15.7475   -1.6012 H   0  0  0  0  0  0  0  0  0  0  0  0
    1.0595  -16.6270   -3.2980 H   0  0  0  0  0  0  0  0  0  0  0  0
   -0.6328  -15.1142   -4.3073 H   0  0  0  0  0  0  0  0  0  0  0  0
   -0.7373  -12.7555   -3.6398 H   0  0  0  0  0  0  0  0  0  0  0  0
   -0.6584   -5.5130   -5.4877 H   0  0  0  0  0  0  0  0  0  0  0  0
   -1.2176   -5.8561   -3.8392 H   0  0  0  0  0  0  0  0  0  0  0  0
    0.1487   -6.7765   -4.5117 H   0  0  0  0  0  0  0  0  0  0  0  0
  1  2  1  0  0  0  0
  1 29  1  0  0  0  0
  1 30  1  0  0  0  0
  1 31  1  0  0  0  0
  2  3  2  0  0  0  0
  2  7  1  0  0  0  0
  3  4  1  0  0  0  0
  3 32  1  0  0  0  0
  4  5  2  0  0  0  0
  4 28  1  0  0  0  0
  5  6  1  0  0  0  0
  6  7  2  0  0  0  0
  6  8  1  0  0  0  0
  8  9  1  0  0  0  0
  8 33  1  0  0  0  0
  9 10  2  0  0  0  0
  9 11  2  0  0  0  0
  9 12  1  0  0  0  0
 12 13  2  0  0  0  0
 12 17  1  0  0  0  0
 13 14  1  0  0  0  0
 13 34  1  0  0  0  0
 14 15  2  0  0  0  0
 14 35  1  0  0  0  0
 15 16  1  0  0  0  0
 15 18  1  0  0  0  0
 16 17  2  0  0  0  0
 16 36  1  0  0  0  0
 17 37  1  0  0  0  0
 18 19  1  0  0  0  0
 18 38  1  0  0  0  0
 19 20  2  0  0  0  0
 19 21  1  0  0  0  0
 21 22  1  0  0  0  0
 21 39  1  0  0  0  0
 22 23  2  0  0  0  0
 22 27  1  0  0  0  0
 23 24  1  0  0  0  0
 23 40  1  0  0  0  0
 24 25  2  0  0  0  0
 24 41  1  0  0  0  0
 25 26  1  0  0  0  0
 25 42  1  0  0  0  0
 26 27  2  0  0  0  0
 26 43  1  0  0  0  0
 27 44  1  0  0  0  0
 28 45  1  0  0  0  0
 28 46  1  0  0  0  0
 28 47  1  0  0  0  0
M  END
