
 OpenBabel10072620173D

 18 18  0  0  0  0  0  0  0  0999 V2000
    2.4285   -0.0538    0.0014 C   0  0  0  0  0  0  0  0  0  0  0  0
    0.9295   -0.0610    0.0016 C   0  0  0  0  0  0  0  0  0  0  0  0
    0.3045    1.1402    0.0078 N   0  0  0  0  0  0  0  0  0  0  0  0
   -1.0497    1.1550    0.0086 C   0  0  0  0  0  0  0  0  0  0  0  0
   -1.8087   -0.0101    0.0033 C   0  0  0  0  0  0  0  0  0  0  0  0
   -1.1528   -1.2375   -0.0031 C   0  0  0  0  0  0  0  0  0  0  0  0
    0.2368   -1.2666   -0.0040 C   0  0  0  0  0  0  0  0  0  0  0  0
   -1.7151    2.4666    0.0155 C   0  0  0  0  0  0  0  0  0  0  0  0
   -1.0711    3.6421    0.0200 C   0  0  0  0  0  0  0  0  0  0  0  0
    2.8136    0.9710    0.0045 H   0  0  0  0  0  0  0  0  0  0  0  0
    2.8090   -0.5580   -0.8924 H   0  0  0  0  0  0  0  0  0  0  0  0
    2.8091   -0.5635    0.8920 H   0  0  0  0  0  0  0  0  0  0  0  0
   -2.8926    0.0255    0.0040 H   0  0  0  0  0  0  0  0  0  0  0  0
   -1.7213   -2.1629   -0.0074 H   0  0  0  0  0  0  0  0  0  0  0  0
    0.7671   -2.2133   -0.0088 H   0  0  0  0  0  0  0  0  0  0  0  0
   -2.8006    2.4599    0.0169 H   0  0  0  0  0  0  0  0  0  0  0  0
    0.0141    3.6956    0.0187 H   0  0  0  0  0  0  0  0  0  0  0  0
   -1.6192    4.5776    0.0250 H   0  0  0  0  0  0  0  0  0  0  0  0
  1  2  1  0  0  0  0
  1 10  1  0  0  0  0
  1 11  1  0  0  0  0
  1 12  1  0  0  0  0
  2  3  2  0  0  0  0
  2  7  1  0  0  0  0
  3  4  1  0  0  0  0
  4  5  2  0  0  0  0
  4  8  1  0  0  0  0
  5  6  1  0  0  0  0
  5 13  1  0  0  0  0
  6  7  2  0  0  0  0
  6 14  1  0  0  0  0
  7 15  1  0  0  0  0
  8  9  2  0  0  0  0
  8 16  1  0  0  0  0
  9 17  1  0  0  0  0
  9 18  1  0  0  0  0
M  END
