
 OpenBabel10072620203D

 28 27  0  0  0  0  0  0  0  0999 V2000
    1.3477   -1.0029    0.6916 C   0  0  0  0  0  0  0  0  0  0  0  0
    2.7957   -0.5680    0.5907 C   0  0  0  0  0  0  0  0  0  0  0  0
    3.4746   -1.4621   -0.2863 O   0  0  0  0  0  0  0  0  0  0  0  0
    4.8536   -1.1560   -0.3606 C   0  0  0  0  0  0  0  0  0  0  0  0
    5.4125   -2.0850   -1.2860 N   0  0  0  0  0  0  0  0  0  0  0  0
    6.7412   -2.0208   -1.5873 C   0  0  0  0  0  0  0  0  0  0  0  0
    7.5373   -1.2759   -1.0295 O   0  0  0  0  0  0  0  0  0  0  0  0
    7.0752   -2.8894   -2.5865 N   0  0  0  0  0  0  0  0  0  0  0  0
    8.4458   -3.0580   -2.9432 C   0  0  0  0  0  0  0  0  0  0  0  0
    8.4613   -4.0278   -3.9733 O   0  0  0  0  0  0  0  0  0  0  0  0
    9.7934   -4.3114   -4.3917 C   0  0  0  0  0  0  0  0  0  0  0  0
    9.7342   -5.2877   -5.5491 C   0  0  0  0  0  0  0  0  0  0  0  0
    0.7793   -0.3155    1.3231 H   0  0  0  0  0  0  0  0  0  0  0  0
    1.2804   -2.0106    1.1169 H   0  0  0  0  0  0  0  0  0  0  0  0
    0.8842   -1.0434   -0.2996 H   0  0  0  0  0  0  0  0  0  0  0  0
    3.2578   -0.5920    1.5842 H   0  0  0  0  0  0  0  0  0  0  0  0
    2.8523    0.4520    0.1932 H   0  0  0  0  0  0  0  0  0  0  0  0
    5.3381   -1.2779    0.6148 H   0  0  0  0  0  0  0  0  0  0  0  0
    5.0101   -0.1377   -0.7372 H   0  0  0  0  0  0  0  0  0  0  0  0
    4.7910   -2.3835   -2.0200 H   0  0  0  0  0  0  0  0  0  0  0  0
    6.5024   -3.7083   -2.6902 H   0  0  0  0  0  0  0  0  0  0  0  0
    9.0030   -3.4082   -2.0659 H   0  0  0  0  0  0  0  0  0  0  0  0
    8.8512   -2.1030   -3.2940 H   0  0  0  0  0  0  0  0  0  0  0  0
   10.3550   -4.7523   -3.5599 H   0  0  0  0  0  0  0  0  0  0  0  0
   10.2916   -3.3895   -4.7123 H   0  0  0  0  0  0  0  0  0  0  0  0
    9.1871   -6.1930   -5.2660 H   0  0  0  0  0  0  0  0  0  0  0  0
   10.7400   -5.5658   -5.8738 H   0  0  0  0  0  0  0  0  0  0  0  0
    9.1998   -4.8435   -6.3963 H   0  0  0  0  0  0  0  0  0  0  0  0
  1  2  1  0  0  0  0
  1 13  1  0  0  0  0
  1 14  1  0  0  0  0
  1 15  1  0  0  0  0
  2  3  1  0  0  0  0
  2 16  1  0  0  0  0
  2 17  1  0  0  0  0
  3  4  1  0  0  0  0
  4  5  1  0  0  0  0
  4 18  1  0  0  0  0
  4 19  1  0  0  0  0
  5  6  1  0  0  0  0
  5 20  1  0  0  0  0
  6  7  2  0  0  0  0
  6  8  1  0  0  0  0
  8  9  1  0  0  0  0
  8 21  1  0  0  0  0
  9 10  1  0  0  0  0
  9 22  1  0  0  0  0
  9 23  1  0  0  0  0
 10 11  1  0  0  0  0
 11 12  1  0  0  0  0
 11 24  1  0  0  0  0
 11 25  1  0  0  0  0
 12 26  1  0  0  0  0
 12 27  1  0  0  0  0
 12 28  1  0  0  0  0
M  END
