
 OpenBabel10072620213D

 88 89  0  0  0  0  0  0  0  0999 V2000
    0.8576    0.7272    0.8586 C   0  0  0  0  0  0  0  0  0  0  0  0
    2.3487    0.5055    0.6586 C   0  0  0  0  0  0  0  0  0  0  0  0
    2.9216    1.4681   -0.3811 C   0  0  0  0  0  0  0  0  0  0  0  0
    4.4221    1.2483   -0.5840 C   0  0  0  0  0  0  0  0  0  0  0  0
    4.9840    2.2164   -1.6268 C   0  0  0  0  0  0  0  0  0  0  0  0
    6.4832    2.0034   -1.8432 C   0  0  0  0  0  0  0  0  0  0  0  0
    7.0328    2.9704   -2.8931 C   0  0  0  0  0  0  0  0  0  0  0  0
    8.5288    2.7531   -3.1265 C   0  0  0  0  0  0  0  0  0  0  0  0
    9.0651    3.7203   -4.1817 C   0  0  0  0  0  0  0  0  0  0  0  0
   10.5593    3.5109   -4.4306 C   0  0  0  0  0  0  0  0  0  0  0  0
   11.0791    4.4948   -5.4783 C   0  0  0  0  0  0  0  0  0  0  0  0
   12.5756    4.3118   -5.7327 C   0  0  0  0  0  0  0  0  0  0  0  0
   13.0738    5.3224   -6.7657 C   0  0  0  0  0  0  0  0  0  0  0  0
   14.5691    5.1623   -7.0405 C   0  0  0  0  0  0  0  0  0  0  0  0
   15.0523    6.2218   -8.0326 C   0  0  0  0  0  0  0  0  0  0  0  0
   16.5506    6.0904   -8.3107 C   0  0  0  0  0  0  0  0  0  0  0  0
   17.0612    7.0958   -9.3501 C   0  0  0  0  0  0  0  0  0  0  0  0
   17.0640    8.5424   -8.8390 C   0  0  0  0  0  0  0  0  0  0  0  0
   17.4918    9.4820   -9.8935 N   0  0  0  0  0  0  0  0  0  0  0  0
   18.9266    9.4580  -10.2142 C   0  0  0  0  0  0  0  0  0  0  0  0
   17.0317   10.8111   -9.7749 C   0  0  0  0  0  0  0  0  0  0  0  0
   16.6793   11.4049   -8.5558 C   0  0  0  0  0  0  0  0  0  0  0  0
   16.2393   12.7341   -8.4931 C   0  0  0  0  0  0  0  0  0  0  0  0
   16.1520   13.5151   -9.6492 C   0  0  0  0  0  0  0  0  0  0  0  0
   16.4806   12.9260  -10.8741 C   0  0  0  0  0  0  0  0  0  0  0  0
   16.9168   11.5972  -10.9306 C   0  0  0  0  0  0  0  0  0  0  0  0
   15.6741   14.9063   -9.6349 C   0  0  0  0  0  0  0  0  0  0  0  0
   15.9236   15.7715   -8.6361 C   0  0  0  0  0  0  0  0  0  0  0  0
   15.4833   17.1727   -8.6245 C   0  0  0  0  0  0  0  0  0  0  0  0
   14.2931   17.5937   -9.2177 C   0  0  0  0  0  0  0  0  0  0  0  0
   13.9259   18.9344   -9.1594 C   0  0  0  0  0  0  0  0  0  0  0  0
   14.7059   19.8341   -8.5230 N   0  3  0  0  0  0  0  0  0  0  0  0
   15.8516   19.4480   -7.9176 C   0  0  0  0  0  0  0  0  0  0  0  0
   16.2569   18.1185   -7.9524 C   0  0  0  0  0  0  0  0  0  0  0  0
   14.3158   21.2531   -8.4733 C   0  0  0  0  0  0  0  0  0  0  0  0
    0.4671    0.0296    1.6061 H   0  0  0  0  0  0  0  0  0  0  0  0
    0.3084    0.5674   -0.0749 H   0  0  0  0  0  0  0  0  0  0  0  0
    0.6554    1.7455    1.2060 H   0  0  0  0  0  0  0  0  0  0  0  0
    2.5190   -0.5300    0.3419 H   0  0  0  0  0  0  0  0  0  0  0  0
    2.8642    0.6414    1.6164 H   0  0  0  0  0  0  0  0  0  0  0  0
    2.7425    2.5020   -0.0615 H   0  0  0  0  0  0  0  0  0  0  0  0
    2.3987    1.3303   -1.3354 H   0  0  0  0  0  0  0  0  0  0  0  0
    4.6027    0.2154   -0.9054 H   0  0  0  0  0  0  0  0  0  0  0  0
    4.9471    1.3874    0.3689 H   0  0  0  0  0  0  0  0  0  0  0  0
    4.8031    3.2488   -1.3033 H   0  0  0  0  0  0  0  0  0  0  0  0
    4.4537    2.0784   -2.5770 H   0  0  0  0  0  0  0  0  0  0  0  0
    6.6652    0.9705   -2.1638 H   0  0  0  0  0  0  0  0  0  0  0  0
    7.0165    2.1481   -0.8958 H   0  0  0  0  0  0  0  0  0  0  0  0
    6.8590    4.0035   -2.5678 H   0  0  0  0  0  0  0  0  0  0  0  0
    6.4913    2.8340   -3.8373 H   0  0  0  0  0  0  0  0  0  0  0  0
    8.7058    1.7204   -3.4501 H   0  0  0  0  0  0  0  0  0  0  0  0
    9.0732    2.8956   -2.1852 H   0  0  0  0  0  0  0  0  0  0  0  0
    8.8886    4.7523   -3.8549 H   0  0  0  0  0  0  0  0  0  0  0  0
    8.5150    3.5814   -5.1204 H   0  0  0  0  0  0  0  0  0  0  0  0
   10.7371    2.4830   -4.7693 H   0  0  0  0  0  0  0  0  0  0  0  0
   11.1121    3.6447   -3.4929 H   0  0  0  0  0  0  0  0  0  0  0  0
   10.8880    5.5216   -5.1425 H   0  0  0  0  0  0  0  0  0  0  0  0
   10.5288    4.3556   -6.4169 H   0  0  0  0  0  0  0  0  0  0  0  0
   12.7696    3.2922   -6.0871 H   0  0  0  0  0  0  0  0  0  0  0  0
   13.1285    4.4408   -4.7942 H   0  0  0  0  0  0  0  0  0  0  0  0
   12.8750    6.3393   -6.4049 H   0  0  0  0  0  0  0  0  0  0  0  0
   12.5151    5.1971   -7.7016 H   0  0  0  0  0  0  0  0  0  0  0  0
   14.7669    4.1606   -7.4406 H   0  0  0  0  0  0  0  0  0  0  0  0
   15.1295    5.2544   -6.1025 H   0  0  0  0  0  0  0  0  0  0  0  0
   14.8287    7.2132   -7.6249 H   0  0  0  0  0  0  0  0  0  0  0  0
   14.4952    6.1255   -8.9723 H   0  0  0  0  0  0  0  0  0  0  0  0
   16.7530    5.0786   -8.6837 H   0  0  0  0  0  0  0  0  0  0  0  0
   17.1164    6.2028   -7.3778 H   0  0  0  0  0  0  0  0  0  0  0  0
   16.4590    7.0237  -10.2642 H   0  0  0  0  0  0  0  0  0  0  0  0
   18.0790    6.7982   -9.6252 H   0  0  0  0  0  0  0  0  0  0  0  0
   17.7155    8.6307   -7.9606 H   0  0  0  0  0  0  0  0  0  0  0  0
   16.0431    8.7882   -8.5267 H   0  0  0  0  0  0  0  0  0  0  0  0
   19.2642    8.4388  -10.4221 H   0  0  0  0  0  0  0  0  0  0  0  0
   19.5214    9.8485   -9.3800 H   0  0  0  0  0  0  0  0  0  0  0  0
   19.1557   10.0436  -11.1116 H   0  0  0  0  0  0  0  0  0  0  0  0
   16.7536   10.8492   -7.6261 H   0  0  0  0  0  0  0  0  0  0  0  0
   15.9614   13.1364   -7.5224 H   0  0  0  0  0  0  0  0  0  0  0  0
   16.4090   13.4886  -11.8014 H   0  0  0  0  0  0  0  0  0  0  0  0
   17.1530   11.1604  -11.8994 H   0  0  0  0  0  0  0  0  0  0  0  0
   15.1261   15.2071  -10.5238 H   0  0  0  0  0  0  0  0  0  0  0  0
   16.5232   15.4553   -7.7841 H   0  0  0  0  0  0  0  0  0  0  0  0
   13.6376   16.8877   -9.7230 H   0  0  0  0  0  0  0  0  0  0  0  0
   13.0077   19.2904   -9.6185 H   0  0  0  0  0  0  0  0  0  0  0  0
   16.4345   20.2120   -7.4112 H   0  0  0  0  0  0  0  0  0  0  0  0
   17.1858   17.8316   -7.4617 H   0  0  0  0  0  0  0  0  0  0  0  0
   13.4000   21.4108   -9.0476 H   0  0  0  0  0  0  0  0  0  0  0  0
   15.1305   21.8411   -8.9042 H   0  0  0  0  0  0  0  0  0  0  0  0
   14.1523   21.5165   -7.4253 H   0  0  0  0  0  0  0  0  0  0  0  0
  1  2  1  0  0  0  0
  1 36  1  0  0  0  0
  1 37  1  0  0  0  0
  1 38  1  0  0  0  0
  2  3  1  0  0  0  0
  2 39  1  0  0  0  0
  2 40  1  0  0  0  0
  3  4  1  0  0  0  0
  3 41  1  0  0  0  0
  3 42  1  0  0  0  0
  4  5  1  0  0  0  0
  4 43  1  0  0  0  0
  4 44  1  0  0  0  0
  5  6  1  0  0  0  0
  5 45  1  0  0  0  0
  5 46  1  0  0  0  0
  6  7  1  0  0  0  0
  6 47  1  0  0  0  0
  6 48  1  0  0  0  0
  7  8  1  0  0  0  0
  7 49  1  0  0  0  0
  7 50  1  0  0  0  0
  8  9  1  0  0  0  0
  8 51  1  0  0  0  0
  8 52  1  0  0  0  0
  9 10  1  0  0  0  0
  9 53  1  0  0  0  0
  9 54  1  0  0  0  0
 10 11  1  0  0  0  0
 10 55  1  0  0  0  0
 10 56  1  0  0  0  0
 11 12  1  0  0  0  0
 11 57  1  0  0  0  0
 11 58  1  0  0  0  0
 12 13  1  0  0  0  0
 12 59  1  0  0  0  0
 12 60  1  0  0  0  0
 13 14  1  0  0  0  0
 13 61  1  0  0  0  0
 13 62  1  0  0  0  0
 14 15  1  0  0  0  0
 14 63  1  0  0  0  0
 14 64  1  0  0  0  0
 15 16  1  0  0  0  0
 15 65  1  0  0  0  0
 15 66  1  0  0  0  0
 16 17  1  0  0  0  0
 16 67  1  0  0  0  0
 16 68  1  0  0  0  0
 17 18  1  0  0  0  0
 17 69  1  0  0  0  0
 17 70  1  0  0  0  0
 18 19  1  0  0  0  0
 18 71  1  0  0  0  0
 18 72  1  0  0  0  0
 19 20  1  0  0  0  0
 19 21  1  0  0  0  0
 20 73  1  0  0  0  0
 20 74  1  0  0  0  0
 20 75  1  0  0  0  0
 21 22  2  0  0  0  0
 21 26  1  0  0  0  0
 22 23  1  0  0  0  0
 22 76  1  0  0  0  0
 23 24  2  0  0  0  0
 23 77  1  0  0  0  0
 24 25  1  0  0  0  0
 24 27  1  0  0  0  0
 25 26  2  0  0  0  0
 25 78  1  0  0  0  0
 26 79  1  0  0  0  0
 27 28  2  0  0  0  0
 27 80  1  0  0  0  0
 28 29  1  0  0  0  0
 28 81  1  0  0  0  0
 29 30  2  0  0  0  0
 29 34  1  0  0  0  0
 30 31  1  0  0  0  0
 30 82  1  0  0  0  0
 31 32  2  0  0  0  0
 31 83  1  0  0  0  0
 32 33  1  0  0  0  0
 32 35  1  0  0  0  0
 33 34  2  0  0  0  0
 33 84  1  0  0  0  0
 34 85  1  0  0  0  0
 35 86  1  0  0  0  0
 35 87  1  0  0  0  0
 35 88  1  0  0  0  0
M  CHG  1  32   1
M  END
