
 OpenBabel10072620103D

 40 42  0  0  0  0  0  0  0  0999 V2000
   -0.4791    1.2126    0.0754 C   0  0  0  0  0  0  0  0  0  0  0  0
   -1.2218    0.2168    0.5444 C   0  0  0  0  0  0  0  0  0  0  0  0
   -0.6736   -1.0252    0.7558 C   0  0  0  0  0  0  0  0  0  0  0  0
    0.6643   -1.2431    0.5767 C   0  0  0  0  0  0  0  0  0  0  0  0
    1.3539   -0.2529    0.0402 C   0  0  0  0  0  0  0  0  0  0  0  0
    0.8922    1.0802   -0.0682 C   0  0  0  0  0  0  0  0  0  0  0  0
    1.7867    2.2212   -0.3113 N   0  0  0  0  0  0  0  0  0  0  0  0
    3.2337    2.0038   -0.4516 C   0  0  0  0  0  0  0  0  0  0  0  0
    4.0617    3.0599   -0.6748 C   0  0  0  0  0  0  0  0  0  0  0  0
    5.5579    2.8352   -0.8200 C   0  0  0  0  0  0  0  0  0  0  0  0
    6.7992    2.6488   -0.9403 N   0  0  0  0  0  0  0  0  0  0  0  0
    3.4905    4.4647   -0.7792 C   0  0  0  0  0  0  0  0  0  0  0  0
    2.4159    4.8352   -0.1449 N   0  0  0  0  0  0  0  0  0  0  0  0
    2.0993    6.1642   -0.3719 C   0  0  0  0  0  0  0  0  0  0  0  0
    2.9618    6.7950   -1.2302 C   0  0  0  0  0  0  0  0  0  0  0  0
    4.2159    5.6996   -1.7496 S   0  0  0  0  0  0  0  0  0  0  0  0
    0.9085    6.8574    0.2699 C   0  0  0  0  0  0  0  0  0  0  0  0
    0.6053    8.1317    0.0519 C   0  0  0  0  0  0  0  0  0  0  0  0
   -0.5228    8.6869    0.6060 C   0  0  0  0  0  0  0  0  0  0  0  0
   -1.3092    7.9712    1.4656 C   0  0  0  0  0  0  0  0  0  0  0  0
   -1.0188    6.6898    1.5987 C   0  0  0  0  0  0  0  0  0  0  0  0
    0.1933    6.0937    1.1775 C   0  0  0  0  0  0  0  0  0  0  0  0
   -2.6520    8.7262    2.3574 Cl  0  0  0  0  0  0  0  0  0  0  0  0
   -0.9670   10.3618    0.1988 Cl  0  0  0  0  0  0  0  0  0  0  0  0
   -1.7378   -2.3927    1.2787 S   0  0  0  0  0  0  0  0  0  0  0  0
   -0.9285   -3.3711    2.1332 O   0  0  0  0  0  0  0  0  0  0  0  0
   -2.9067   -1.8441    2.1004 O   0  0  0  0  0  0  0  0  0  0  0  0
   -2.3592   -3.2283   -0.1402 N   0  0  0  0  0  0  0  0  0  0  0  0
   -0.9321    2.1019   -0.1870 H   0  0  0  0  0  0  0  0  0  0  0  0
   -2.2199    0.3772    0.7521 H   0  0  0  0  0  0  0  0  0  0  0  0
    1.1111   -2.1334    0.8463 H   0  0  0  0  0  0  0  0  0  0  0  0
    2.2951   -0.4662   -0.3255 H   0  0  0  0  0  0  0  0  0  0  0  0
    1.4166    3.1309   -0.3800 H   0  0  0  0  0  0  0  0  0  0  0  0
    3.6215    1.0501   -0.3807 H   0  0  0  0  0  0  0  0  0  0  0  0
    2.8806    7.7799   -1.5276 H   0  0  0  0  0  0  0  0  0  0  0  0
    1.2226    8.7104   -0.5389 H   0  0  0  0  0  0  0  0  0  0  0  0
   -1.7252    6.0809    2.0407 H   0  0  0  0  0  0  0  0  0  0  0  0
    0.5152    5.1734    1.5158 H   0  0  0  0  0  0  0  0  0  0  0  0
   -1.5802   -3.5939   -0.6877 H   0  0  0  0  0  0  0  0  0  0  0  0
   -2.8986   -2.5763   -0.7096 H   0  0  0  0  0  0  0  0  0  0  0  0
  1  2  2  0  0  0  0
  1  6  1  0  0  0  0
  1 29  1  0  0  0  0
  2  3  1  0  0  0  0
  2 30  1  0  0  0  0
  3  4  2  0  0  0  0
  3 25  1  0  0  0  0
  4  5  1  0  0  0  0
  4 31  1  0  0  0  0
  5  6  2  0  0  0  0
  5 32  1  0  0  0  0
  6  7  1  0  0  0  0
  7  8  1  0  0  0  0
  7 33  1  0  0  0  0
  8  9  2  0  0  0  0
  8 34  1  0  0  0  0
  9 10  1  0  0  0  0
  9 12  1  0  0  0  0
 10 11  3  0  0  0  0
 12 13  2  0  0  0  0
 12 16  1  0  0  0  0
 13 14  1  0  0  0  0
 14 15  2  0  0  0  0
 14 17  1  0  0  0  0
 15 16  1  0  0  0  0
 15 35  1  0  0  0  0
 17 18  2  0  0  0  0
 17 22  1  0  0  0  0
 18 19  1  0  0  0  0
 18 36  1  0  0  0  0
 19 20  2  0  0  0  0
 19 24  1  0  0  0  0
 20 21  1  0  0  0  0
 20 23  1  0  0  0  0
 21 22  2  0  0  0  0
 21 37  1  0  0  0  0
 22 38  1  0  0  0  0
 25 26  2  0  0  0  0
 25 27  2  0  0  0  0
 25 28  1  0  0  0  0
 28 39  1  0  0  0  0
 28 40  1  0  0  0  0
M  END
