
 OpenBabel10072619473D

 66 65  0  0  0  0  0  0  0  0999 V2000
    7.7099    3.2115   -1.7958 C   0  0  0  0  0  0  0  0  0  0  0  0
    6.8325    2.3121   -0.9746 C   0  0  0  0  0  0  0  0  0  0  0  0
    5.5037    2.4817   -0.9001 C   0  0  0  0  0  0  0  0  0  0  0  0
    7.5469    1.2277   -0.2409 C   0  0  0  0  0  0  0  0  0  0  0  0
    8.7651    1.1814   -0.1307 O   0  0  0  0  0  0  0  0  0  0  0  0
    6.6751    0.3135    0.2514 O   0  0  0  0  0  0  0  0  0  0  0  0
    7.2414   -0.7532    1.0293 C   0  0  0  0  0  0  0  0  0  0  0  0
    7.5393   -1.9265    0.1102 C   0  0  0  0  0  0  0  0  0  0  0  0
    8.0822   -3.1447    0.8405 C   0  0  0  0  0  0  0  0  0  0  0  0
    7.1951   -3.7978    1.9055 C   0  0  0  0  0  0  0  0  0  0  0  0
    5.8371   -4.2543    1.4018 C   0  0  0  0  0  0  0  0  0  0  0  0
    5.7877   -5.2487    0.2475 C   0  0  0  0  0  0  0  0  0  0  0  0
    6.4889   -6.5878    0.4348 C   0  0  0  0  0  0  0  0  0  0  0  0
    5.9976   -7.4885    1.5600 C   0  0  0  0  0  0  0  0  0  0  0  0
    4.5423   -7.9453    1.5352 C   0  0  0  0  0  0  0  0  0  0  0  0
    4.0618   -8.7208    0.3113 C   0  0  0  0  0  0  0  0  0  0  0  0
    4.7324  -10.0532   -0.0014 C   0  0  0  0  0  0  0  0  0  0  0  0
    4.6826  -11.1269    1.0744 C   0  0  0  0  0  0  0  0  0  0  0  0
    3.3197  -11.5974    1.5543 C   0  0  0  0  0  0  0  0  0  0  0  0
    2.3797  -12.2633    0.5631 C   0  0  0  0  0  0  0  0  0  0  0  0
    2.8508  -13.5339   -0.1225 C   0  0  0  0  0  0  0  0  0  0  0  0
    3.2326  -14.7366    0.7228 C   0  0  0  0  0  0  0  0  0  0  0  0
    2.1938  -15.1849    1.7196 C   0  0  0  0  0  0  0  0  0  0  0  0
    2.5857  -16.5544    2.2502 C   0  0  0  0  0  0  0  0  0  0  0  0
    3.8836  -16.6440    2.6107 F   0  0  0  0  0  0  0  0  0  0  0  0
    1.8462  -16.8697    3.3415 F   0  0  0  0  0  0  0  0  0  0  0  0
    2.3545  -17.5139    1.3222 F   0  0  0  0  0  0  0  0  0  0  0  0
    2.1092  -14.2857    2.7398 F   0  0  0  0  0  0  0  0  0  0  0  0
    0.9595  -15.2377    1.1539 F   0  0  0  0  0  0  0  0  0  0  0  0
    3.5126  -15.7635   -0.1382 F   0  0  0  0  0  0  0  0  0  0  0  0
    4.4015  -14.4801    1.3721 F   0  0  0  0  0  0  0  0  0  0  0  0
    1.8637  -13.9335   -0.9878 F   0  0  0  0  0  0  0  0  0  0  0  0
    3.9097  -13.2198   -0.9289 F   0  0  0  0  0  0  0  0  0  0  0  0
    1.2030  -12.5376    1.2056 F   0  0  0  0  0  0  0  0  0  0  0  0
    2.0399  -11.3494   -0.3957 F   0  0  0  0  0  0  0  0  0  0  0  0
    3.5259  -12.4698    2.5860 F   0  0  0  0  0  0  0  0  0  0  0  0
    2.6717  -10.5397    2.1249 F   0  0  0  0  0  0  0  0  0  0  0  0
    5.3831  -12.2189    0.6499 F   0  0  0  0  0  0  0  0  0  0  0  0
    5.3880  -10.6762    2.1555 F   0  0  0  0  0  0  0  0  0  0  0  0
    4.1855  -10.5655   -1.1438 F   0  0  0  0  0  0  0  0  0  0  0  0
    6.0384   -9.8157   -0.3237 F   0  0  0  0  0  0  0  0  0  0  0  0
    2.7182   -8.9455    0.4297 F   0  0  0  0  0  0  0  0  0  0  0  0
    4.1677   -7.9077   -0.7808 F   0  0  0  0  0  0  0  0  0  0  0  0
    4.3043   -8.7011    2.6485 F   0  0  0  0  0  0  0  0  0  0  0  0
    3.7429   -6.8498    1.7007 F   0  0  0  0  0  0  0  0  0  0  0  0
    6.7871   -8.6043    1.5975 F   0  0  0  0  0  0  0  0  0  0  0  0
    6.2401   -6.8562    2.7468 F   0  0  0  0  0  0  0  0  0  0  0  0
    6.4136   -7.2926   -0.7336 F   0  0  0  0  0  0  0  0  0  0  0  0
    7.8236   -6.3602    0.6107 F   0  0  0  0  0  0  0  0  0  0  0  0
    4.4767   -5.4907   -0.0567 F   0  0  0  0  0  0  0  0  0  0  0  0
    6.2742   -4.6372   -0.8753 F   0  0  0  0  0  0  0  0  0  0  0  0
    5.1215   -4.7676    2.4460 F   0  0  0  0  0  0  0  0  0  0  0  0
    5.1385   -3.1356    1.0232 F   0  0  0  0  0  0  0  0  0  0  0  0
    7.8420   -4.8517    2.4780 F   0  0  0  0  0  0  0  0  0  0  0  0
    7.0038   -2.9142    2.9369 F   0  0  0  0  0  0  0  0  0  0  0  0
    8.4303   -4.0725   -0.0954 F   0  0  0  0  0  0  0  0  0  0  0  0
    9.2556   -2.7665    1.4263 F   0  0  0  0  0  0  0  0  0  0  0  0
    7.1230    3.9539   -2.3499 H   0  0  0  0  0  0  0  0  0  0  0  0
    8.2672    2.6123   -2.5237 H   0  0  0  0  0  0  0  0  0  0  0  0
    8.4215    3.7547   -1.1621 H   0  0  0  0  0  0  0  0  0  0  0  0
    5.0107    3.2782   -1.4503 H   0  0  0  0  0  0  0  0  0  0  0  0
    4.8623    1.8436   -0.2964 H   0  0  0  0  0  0  0  0  0  0  0  0
    6.4808   -1.0102    1.7731 H   0  0  0  0  0  0  0  0  0  0  0  0
    8.1346   -0.4216    1.5680 H   0  0  0  0  0  0  0  0  0  0  0  0
    8.2818   -1.6121   -0.6359 H   0  0  0  0  0  0  0  0  0  0  0  0
    6.6489   -2.1664   -0.4787 H   0  0  0  0  0  0  0  0  0  0  0  0
  1  2  1  0  0  0  0
  1 58  1  0  0  0  0
  1 59  1  0  0  0  0
  1 60  1  0  0  0  0
  2  3  2  0  0  0  0
  2  4  1  0  0  0  0
  3 61  1  0  0  0  0
  3 62  1  0  0  0  0
  4  5  2  0  0  0  0
  4  6  1  0  0  0  0
  6  7  1  0  0  0  0
  7  8  1  0  0  0  0
  7 63  1  0  0  0  0
  7 64  1  0  0  0  0
  8  9  1  0  0  0  0
  8 65  1  0  0  0  0
  8 66  1  0  0  0  0
  9 10  1  0  0  0  0
  9 56  1  0  0  0  0
  9 57  1  0  0  0  0
 10 11  1  0  0  0  0
 10 54  1  0  0  0  0
 10 55  1  0  0  0  0
 11 12  1  0  0  0  0
 11 52  1  0  0  0  0
 11 53  1  0  0  0  0
 12 13  1  0  0  0  0
 12 50  1  0  0  0  0
 12 51  1  0  0  0  0
 13 14  1  0  0  0  0
 13 48  1  0  0  0  0
 13 49  1  0  0  0  0
 14 15  1  0  0  0  0
 14 46  1  0  0  0  0
 14 47  1  0  0  0  0
 15 16  1  0  0  0  0
 15 44  1  0  0  0  0
 15 45  1  0  0  0  0
 16 17  1  0  0  0  0
 16 42  1  0  0  0  0
 16 43  1  0  0  0  0
 17 18  1  0  0  0  0
 17 40  1  0  0  0  0
 17 41  1  0  0  0  0
 18 19  1  0  0  0  0
 18 38  1  0  0  0  0
 18 39  1  0  0  0  0
 19 20  1  0  0  0  0
 19 36  1  0  0  0  0
 19 37  1  0  0  0  0
 20 21  1  0  0  0  0
 20 34  1  0  0  0  0
 20 35  1  0  0  0  0
 21 22  1  0  0  0  0
 21 32  1  0  0  0  0
 21 33  1  0  0  0  0
 22 23  1  0  0  0  0
 22 30  1  0  0  0  0
 22 31  1  0  0  0  0
 23 24  1  0  0  0  0
 23 28  1  0  0  0  0
 23 29  1  0  0  0  0
 24 25  1  0  0  0  0
 24 26  1  0  0  0  0
 24 27  1  0  0  0  0
M  END
