
 OpenBabel10072616313D

 29 29  0  0  0  0  0  0  0  0999 V2000
    1.1396    0.3690   -0.3175 C   0  0  0  0  0  0  0  0  0  0  0  0
    2.6411    0.2474   -0.1797 C   0  0  0  0  0  0  0  0  0  0  0  0
    3.2129   -0.7203   -0.8303 N   0  0  0  0  0  0  0  0  0  0  0  0
    4.5394   -0.9710   -0.6368 N   0  0  0  0  0  0  0  0  0  0  0  0
    5.2161   -1.9030   -1.3894 C   0  0  0  0  0  0  0  0  0  0  0  0
    4.6252   -2.7248   -2.7196 S   0  0  0  0  0  0  0  0  0  0  0  0
    6.5088   -2.1521   -1.0177 N   0  0  0  0  0  0  0  0  0  0  0  0
    7.2468   -1.5803    0.0828 C   0  0  0  0  0  0  0  0  0  0  0  0
    3.3165    1.2526    0.6818 C   0  0  0  0  0  0  0  0  0  0  0  0
    2.8408    1.5004    1.9725 C   0  0  0  0  0  0  0  0  0  0  0  0
    3.4858    2.4635    2.7597 C   0  0  0  0  0  0  0  0  0  0  0  0
    4.5929    3.1709    2.2661 C   0  0  0  0  0  0  0  0  0  0  0  0
    5.0484    2.9249    0.9703 C   0  0  0  0  0  0  0  0  0  0  0  0
    4.4091    1.9716    0.1775 C   0  0  0  0  0  0  0  0  0  0  0  0
    2.9987    2.7400    4.1171 N   0  3  0  0  0  0  0  0  0  0  0  0
    1.9923    2.1270    4.5012 O   0  0  0  0  0  0  0  0  0  0  0  0
    3.6232    3.5654    4.7969 O   0  5  0  0  0  0  0  0  0  0  0  0
    0.8484    0.1801   -1.3550 H   0  0  0  0  0  0  0  0  0  0  0  0
    0.7887    1.3648   -0.0360 H   0  0  0  0  0  0  0  0  0  0  0  0
    0.6645   -0.3788    0.3242 H   0  0  0  0  0  0  0  0  0  0  0  0
    4.9736   -0.6089    0.1977 H   0  0  0  0  0  0  0  0  0  0  0  0
    6.9692   -2.8548   -1.5857 H   0  0  0  0  0  0  0  0  0  0  0  0
    7.2254   -0.4902    0.0096 H   0  0  0  0  0  0  0  0  0  0  0  0
    8.2773   -1.9384    0.0335 H   0  0  0  0  0  0  0  0  0  0  0  0
    6.7869   -1.8940    1.0231 H   0  0  0  0  0  0  0  0  0  0  0  0
    1.9854    0.9469    2.3547 H   0  0  0  0  0  0  0  0  0  0  0  0
    5.0994    3.9202    2.8714 H   0  0  0  0  0  0  0  0  0  0  0  0
    5.8961    3.4839    0.5767 H   0  0  0  0  0  0  0  0  0  0  0  0
    4.7600    1.7932   -0.8384 H   0  0  0  0  0  0  0  0  0  0  0  0
  1  2  1  0  0  0  0
  1 18  1  0  0  0  0
  1 19  1  0  0  0  0
  1 20  1  0  0  0  0
  2  3  2  0  0  0  0
  2  9  1  0  0  0  0
  3  4  1  0  0  0  0
  4  5  1  0  0  0  0
  4 21  1  0  0  0  0
  5  6  2  0  0  0  0
  5  7  1  0  0  0  0
  7  8  1  0  0  0  0
  7 22  1  0  0  0  0
  8 23  1  0  0  0  0
  8 24  1  0  0  0  0
  8 25  1  0  0  0  0
  9 10  2  0  0  0  0
  9 14  1  0  0  0  0
 10 11  1  0  0  0  0
 10 26  1  0  0  0  0
 11 12  2  0  0  0  0
 11 15  1  0  0  0  0
 12 13  1  0  0  0  0
 12 27  1  0  0  0  0
 13 14  2  0  0  0  0
 13 28  1  0  0  0  0
 14 29  1  0  0  0  0
 15 16  2  0  0  0  0
 15 17  1  0  0  0  0
M  CHG  2  15   1  17  -1
M  END
