
 OpenBabel10072619443D

 42 44  0  0  0  0  0  0  0  0999 V2000
    1.4310    0.5600    0.0718 C   0  0  0  0  0  0  0  0  0  0  0  0
    2.8300    0.1788   -0.3859 C   0  0  0  0  0  0  0  0  0  0  0  0
    3.3205   -1.0185    0.3311 N   0  0  0  0  0  0  0  0  0  0  0  0
    2.6208   -2.2962    0.0981 C   0  0  0  0  0  0  0  0  0  0  0  0
    2.7993   -2.9176   -1.2652 C   0  0  0  0  0  0  0  0  0  0  0  0
    3.7971   -3.8784   -1.4819 C   0  0  0  0  0  0  0  0  0  0  0  0
    3.9429   -4.4784   -2.7330 C   0  0  0  0  0  0  0  0  0  0  0  0
    3.1047   -4.1143   -3.7842 C   0  0  0  0  0  0  0  0  0  0  0  0
    2.1159   -3.1529   -3.5875 C   0  0  0  0  0  0  0  0  0  0  0  0
    1.9591   -2.5645   -2.3319 C   0  0  0  0  0  0  0  0  0  0  0  0
    4.9812   -1.0917    0.6575 S   0  0  0  0  0  0  0  0  0  0  0  0
    5.3255   -2.4145    1.1380 O   0  0  0  0  0  0  0  0  0  0  0  0
    5.6959   -0.4675   -0.4338 O   0  0  0  0  0  0  0  0  0  0  0  0
    5.0828   -0.0113    2.0705 C   0  0  0  0  0  0  0  0  0  0  0  0
    4.6681   -0.4989    3.3139 C   0  0  0  0  0  0  0  0  0  0  0  0
    4.7555    0.3137    4.4526 C   0  0  0  0  0  0  0  0  0  0  0  0
    4.3500   -0.1550    5.7113 C   0  0  0  0  0  0  0  0  0  0  0  0
    4.4680    0.6539    6.8431 C   0  0  0  0  0  0  0  0  0  0  0  0
    4.9835    1.9423    6.7241 C   0  0  0  0  0  0  0  0  0  0  0  0
    5.3746    2.4290    5.4757 C   0  0  0  0  0  0  0  0  0  0  0  0
    5.2709    1.6264    4.3285 C   0  0  0  0  0  0  0  0  0  0  0  0
    5.6816    2.0955    3.0693 C   0  0  0  0  0  0  0  0  0  0  0  0
    5.6007    1.2771    1.9406 C   0  0  0  0  0  0  0  0  0  0  0  0
    1.1504    1.5360   -0.3372 H   0  0  0  0  0  0  0  0  0  0  0  0
    1.3751    0.6170    1.1637 H   0  0  0  0  0  0  0  0  0  0  0  0
    0.6839   -0.1635   -0.2678 H   0  0  0  0  0  0  0  0  0  0  0  0
    3.4825    1.0339   -0.1791 H   0  0  0  0  0  0  0  0  0  0  0  0
    2.8543    0.0196   -1.4681 H   0  0  0  0  0  0  0  0  0  0  0  0
    1.5491   -2.1606    0.2856 H   0  0  0  0  0  0  0  0  0  0  0  0
    2.9083   -3.0163    0.8745 H   0  0  0  0  0  0  0  0  0  0  0  0
    4.4651   -4.1731   -0.6745 H   0  0  0  0  0  0  0  0  0  0  0  0
    4.7140   -5.2299   -2.8834 H   0  0  0  0  0  0  0  0  0  0  0  0
    3.2203   -4.5814   -4.7581 H   0  0  0  0  0  0  0  0  0  0  0  0
    1.4670   -2.8657   -4.4106 H   0  0  0  0  0  0  0  0  0  0  0  0
    1.1716   -1.8286   -2.1900 H   0  0  0  0  0  0  0  0  0  0  0  0
    4.2884   -1.5156    3.3959 H   0  0  0  0  0  0  0  0  0  0  0  0
    3.9459   -1.1592    5.8231 H   0  0  0  0  0  0  0  0  0  0  0  0
    4.1619    0.2735    7.8145 H   0  0  0  0  0  0  0  0  0  0  0  0
    5.0898    2.5737    7.6026 H   0  0  0  0  0  0  0  0  0  0  0  0
    5.7733    3.4389    5.4080 H   0  0  0  0  0  0  0  0  0  0  0  0
    6.0835    3.1010    2.9619 H   0  0  0  0  0  0  0  0  0  0  0  0
    5.9431    1.6471    0.9779 H   0  0  0  0  0  0  0  0  0  0  0  0
  1  2  1  0  0  0  0
  1 24  1  0  0  0  0
  1 25  1  0  0  0  0
  1 26  1  0  0  0  0
  2  3  1  0  0  0  0
  2 27  1  0  0  0  0
  2 28  1  0  0  0  0
  3  4  1  0  0  0  0
  3 11  1  0  0  0  0
  4  5  1  0  0  0  0
  4 29  1  0  0  0  0
  4 30  1  0  0  0  0
  5  6  2  0  0  0  0
  5 10  1  0  0  0  0
  6  7  1  0  0  0  0
  6 31  1  0  0  0  0
  7  8  2  0  0  0  0
  7 32  1  0  0  0  0
  8  9  1  0  0  0  0
  8 33  1  0  0  0  0
  9 10  2  0  0  0  0
  9 34  1  0  0  0  0
 10 35  1  0  0  0  0
 11 12  2  0  0  0  0
 11 13  2  0  0  0  0
 11 14  1  0  0  0  0
 14 15  2  0  0  0  0
 14 23  1  0  0  0  0
 15 16  1  0  0  0  0
 15 36  1  0  0  0  0
 16 17  2  0  0  0  0
 16 21  1  0  0  0  0
 17 18  1  0  0  0  0
 17 37  1  0  0  0  0
 18 19  2  0  0  0  0
 18 38  1  0  0  0  0
 19 20  1  0  0  0  0
 19 39  1  0  0  0  0
 20 21  2  0  0  0  0
 20 40  1  0  0  0  0
 21 22  1  0  0  0  0
 22 23  2  0  0  0  0
 22 41  1  0  0  0  0
 23 42  1  0  0  0  0
M  END
