
 OpenBabel10072619543D

 62 66  0  0  0  0  0  0  0  0999 V2000
   -1.3168    6.9349    2.1758 C   0  0  0  0  0  0  0  0  0  0  0  0
   -1.3898    5.4766    1.8289 C   0  0  0  0  0  0  0  0  0  0  0  0
   -0.8602    5.0135    0.6178 C   0  0  0  0  0  0  0  0  0  0  0  0
   -1.2989    3.8031    0.0964 C   0  0  0  0  0  0  0  0  0  0  0  0
   -2.2741    3.0800    0.7923 C   0  0  0  0  0  0  0  0  0  0  0  0
   -2.6415    3.4276    2.0929 C   0  0  0  0  0  0  0  0  0  0  0  0
   -2.2007    4.6388    2.6065 C   0  0  0  0  0  0  0  0  0  0  0  0
   -3.2345    2.3091   -0.0113 C   0  0  0  0  0  0  0  0  0  0  0  0
   -3.3624    2.5871   -1.2058 O   0  0  0  0  0  0  0  0  0  0  0  0
   -4.0624    1.4245    0.6509 N   0  0  0  0  0  0  0  0  0  0  0  0
   -5.2069    0.9465    0.0422 C   0  0  0  0  0  0  0  0  0  0  0  0
   -5.4307   -0.3635   -0.2005 C   0  0  0  0  0  0  0  0  0  0  0  0
   -4.6415   -1.6699   -0.1358 C   0  0  0  0  0  0  0  0  0  0  0  0
   -3.2459   -1.8627    0.0871 C   0  0  0  0  0  0  0  0  0  0  0  0
   -2.3168   -0.8430    0.2477 C   0  0  0  0  0  0  0  0  0  0  0  0
   -1.2284   -0.9786    1.1141 C   0  0  0  0  0  0  0  0  0  0  0  0
   -0.8884   -2.2488    1.5775 C   0  0  0  0  0  0  0  0  0  0  0  0
   -1.5679   -3.3461    1.0388 C   0  0  0  0  0  0  0  0  0  0  0  0
   -2.7061   -3.1481    0.2221 C   0  0  0  0  0  0  0  0  0  0  0  0
   -3.3565   -4.1852   -0.4478 C   0  0  0  0  0  0  0  0  0  0  0  0
   -4.7199   -4.0395   -0.7109 C   0  0  0  0  0  0  0  0  0  0  0  0
   -5.4702   -5.1102   -1.2134 C   0  0  0  0  0  0  0  0  0  0  0  0
   -6.7606   -5.2920   -0.7043 C   0  0  0  0  0  0  0  0  0  0  0  0
   -7.3657   -4.2546    0.0060 C   0  0  0  0  0  0  0  0  0  0  0  0
   -6.7319   -3.0131    0.0858 C   0  0  0  0  0  0  0  0  0  0  0  0
   -5.3786   -2.8750   -0.2765 C   0  0  0  0  0  0  0  0  0  0  0  0
   -6.3265    2.0077   -0.2369 C   0  0  0  0  0  0  0  0  0  0  0  0
   -7.5181    1.6959   -0.1250 O   0  0  0  0  0  0  0  0  0  0  0  0
   -5.8602    3.2674   -0.5675 N   0  0  0  0  0  0  0  0  0  0  0  0
   -6.4922    4.5333   -0.5658 C   0  0  0  0  0  0  0  0  0  0  0  0
   -7.7565    4.7886   -0.0409 C   0  0  0  0  0  0  0  0  0  0  0  0
   -8.3026    6.0878   -0.0951 C   0  0  0  0  0  0  0  0  0  0  0  0
   -7.5981    7.1507   -0.6777 C   0  0  0  0  0  0  0  0  0  0  0  0
   -6.3105    6.9045   -1.1586 C   0  0  0  0  0  0  0  0  0  0  0  0
   -5.7641    5.6140   -1.0937 C   0  0  0  0  0  0  0  0  0  0  0  0
   -8.2104    8.5152   -0.8360 C   0  0  0  0  0  0  0  0  0  0  0  0
   -0.4627    7.4240    1.7011 H   0  0  0  0  0  0  0  0  0  0  0  0
   -1.2534    7.0827    3.2567 H   0  0  0  0  0  0  0  0  0  0  0  0
   -2.2340    7.4160    1.8109 H   0  0  0  0  0  0  0  0  0  0  0  0
   -0.2149    5.6459    0.0123 H   0  0  0  0  0  0  0  0  0  0  0  0
   -1.0155    3.5183   -0.9164 H   0  0  0  0  0  0  0  0  0  0  0  0
   -3.4070    2.8791    2.6350 H   0  0  0  0  0  0  0  0  0  0  0  0
   -2.6095    4.9884    3.5516 H   0  0  0  0  0  0  0  0  0  0  0  0
   -3.6207    0.8243    1.3393 H   0  0  0  0  0  0  0  0  0  0  0  0
   -6.4202   -0.5431   -0.6326 H   0  0  0  0  0  0  0  0  0  0  0  0
   -2.4729    0.0470   -0.3389 H   0  0  0  0  0  0  0  0  0  0  0  0
   -0.6684   -0.0863    1.4087 H   0  0  0  0  0  0  0  0  0  0  0  0
   -0.0816   -2.4213    2.2985 H   0  0  0  0  0  0  0  0  0  0  0  0
   -1.2838   -4.3522    1.3478 H   0  0  0  0  0  0  0  0  0  0  0  0
   -2.8545   -5.1388   -0.6025 H   0  0  0  0  0  0  0  0  0  0  0  0
   -5.0128   -5.7981   -1.9305 H   0  0  0  0  0  0  0  0  0  0  0  0
   -7.3013   -6.2273   -0.8644 H   0  0  0  0  0  0  0  0  0  0  0  0
   -8.3548   -4.3727    0.4417 H   0  0  0  0  0  0  0  0  0  0  0  0
   -7.2607   -2.1800    0.5415 H   0  0  0  0  0  0  0  0  0  0  0  0
   -4.9217    3.2734   -0.9611 H   0  0  0  0  0  0  0  0  0  0  0  0
   -8.3393    3.9955    0.4173 H   0  0  0  0  0  0  0  0  0  0  0  0
   -9.2968    6.2574    0.3143 H   0  0  0  0  0  0  0  0  0  0  0  0
   -5.7293    7.7110   -1.6022 H   0  0  0  0  0  0  0  0  0  0  0  0
   -4.7579    5.4653   -1.4813 H   0  0  0  0  0  0  0  0  0  0  0  0
   -9.1985    8.5757   -0.3678 H   0  0  0  0  0  0  0  0  0  0  0  0
   -8.3343    8.7472   -1.9004 H   0  0  0  0  0  0  0  0  0  0  0  0
   -7.5773    9.2850   -0.3814 H   0  0  0  0  0  0  0  0  0  0  0  0
  1  2  1  0  0  0  0
  1 37  1  0  0  0  0
  1 38  1  0  0  0  0
  1 39  1  0  0  0  0
  2  3  2  0  0  0  0
  2  7  1  0  0  0  0
  3  4  1  0  0  0  0
  3 40  1  0  0  0  0
  4  5  2  0  0  0  0
  4 41  1  0  0  0  0
  5  6  1  0  0  0  0
  5  8  1  0  0  0  0
  6  7  2  0  0  0  0
  6 42  1  0  0  0  0
  7 43  1  0  0  0  0
  8  9  2  0  0  0  0
  8 10  1  0  0  0  0
 10 11  1  0  0  0  0
 10 44  1  0  0  0  0
 11 12  2  0  0  0  0
 11 27  1  0  0  0  0
 12 13  1  0  0  0  0
 12 45  1  0  0  0  0
 13 14  2  0  0  0  0
 13 26  1  0  0  0  0
 14 15  1  0  0  0  0
 14 19  1  0  0  0  0
 15 16  2  0  0  0  0
 15 46  1  0  0  0  0
 16 17  1  0  0  0  0
 16 47  1  0  0  0  0
 17 18  2  0  0  0  0
 17 48  1  0  0  0  0
 18 19  1  0  0  0  0
 18 49  1  0  0  0  0
 19 20  2  0  0  0  0
 20 21  1  0  0  0  0
 20 50  1  0  0  0  0
 21 22  2  0  0  0  0
 21 26  1  0  0  0  0
 22 23  1  0  0  0  0
 22 51  1  0  0  0  0
 23 24  2  0  0  0  0
 23 52  1  0  0  0  0
 24 25  1  0  0  0  0
 24 53  1  0  0  0  0
 25 26  2  0  0  0  0
 25 54  1  0  0  0  0
 27 28  2  0  0  0  0
 27 29  1  0  0  0  0
 29 30  1  0  0  0  0
 29 55  1  0  0  0  0
 30 31  2  0  0  0  0
 30 35  1  0  0  0  0
 31 32  1  0  0  0  0
 31 56  1  0  0  0  0
 32 33  2  0  0  0  0
 32 57  1  0  0  0  0
 33 34  1  0  0  0  0
 33 36  1  0  0  0  0
 34 35  2  0  0  0  0
 34 58  1  0  0  0  0
 35 59  1  0  0  0  0
 36 60  1  0  0  0  0
 36 61  1  0  0  0  0
 36 62  1  0  0  0  0
M  END
