
 OpenBabel10072620003D

 39 40  0  0  0  0  0  0  0  0999 V2000
   -2.2925   -0.1616    0.6643 C   0  0  0  0  0  0  0  0  0  0  0  0
   -0.8378   -0.1318    0.3035 C   0  0  0  0  0  0  0  0  0  0  0  0
   -0.2205    1.0683    0.3141 N   0  0  0  0  0  0  0  0  0  0  0  0
    1.0811    1.1092   -0.0196 C   0  0  0  0  0  0  0  0  0  0  0  0
    1.7913    0.0226   -0.3594 N   0  0  0  0  0  0  0  0  0  0  0  0
    1.1480   -1.1570   -0.3504 C   0  0  0  0  0  0  0  0  0  0  0  0
   -0.1779   -1.2957   -0.0239 C   0  0  0  0  0  0  0  0  0  0  0  0
    1.6764    2.3641    0.0088 N   0  0  0  0  0  0  0  0  0  0  0  0
    2.9871    2.6951   -0.2382 C   0  0  0  0  0  0  0  0  0  0  0  0
    3.5725    3.9005   -0.1231 C   0  0  0  0  0  0  0  0  0  0  0  0
    2.7091    5.0531    0.3304 C   0  0  0  0  0  0  0  0  0  0  0  0
    1.7607    4.9352    1.1019 O   0  0  0  0  0  0  0  0  0  0  0  0
    3.0851    6.2654   -0.2402 N   0  0  0  0  0  0  0  0  0  0  0  0
    2.3418    7.4300    0.0528 N   0  0  0  0  0  0  0  0  0  0  0  0
    4.9093    4.1874   -0.3563 N   0  0  0  0  0  0  0  0  0  0  0  0
    5.8676    3.3807   -0.9399 C   0  0  0  0  0  0  0  0  0  0  0  0
    5.6637    2.3137   -1.5036 O   0  0  0  0  0  0  0  0  0  0  0  0
    7.2500    3.9384   -0.9226 C   0  0  0  0  0  0  0  0  0  0  0  0
    7.7285    4.6796    0.1666 C   0  0  0  0  0  0  0  0  0  0  0  0
    9.0268    5.1920    0.1431 C   0  0  0  0  0  0  0  0  0  0  0  0
    9.8498    4.9623   -0.9594 C   0  0  0  0  0  0  0  0  0  0  0  0
    9.3822    4.2124   -2.0383 C   0  0  0  0  0  0  0  0  0  0  0  0
    8.0867    3.6937   -2.0181 C   0  0  0  0  0  0  0  0  0  0  0  0
   -2.6577    0.8446    0.8954 H   0  0  0  0  0  0  0  0  0  0  0  0
   -2.4512   -0.7930    1.5443 H   0  0  0  0  0  0  0  0  0  0  0  0
   -2.8817   -0.5535   -0.1711 H   0  0  0  0  0  0  0  0  0  0  0  0
    1.7540   -2.0145   -0.6259 H   0  0  0  0  0  0  0  0  0  0  0  0
   -0.6657   -2.2602   -0.0290 H   0  0  0  0  0  0  0  0  0  0  0  0
    1.0668    3.0670    0.4168 H   0  0  0  0  0  0  0  0  0  0  0  0
    3.5687    1.8307   -0.5518 H   0  0  0  0  0  0  0  0  0  0  0  0
    3.6997    6.2696   -1.0528 H   0  0  0  0  0  0  0  0  0  0  0  0
    2.1782    7.4340    1.0683 H   0  0  0  0  0  0  0  0  0  0  0  0
    1.3976    7.2916   -0.3262 H   0  0  0  0  0  0  0  0  0  0  0  0
    5.2026    5.1143   -0.0702 H   0  0  0  0  0  0  0  0  0  0  0  0
    7.1187    4.8405    1.0513 H   0  0  0  0  0  0  0  0  0  0  0  0
    9.4013    5.7623    0.9898 H   0  0  0  0  0  0  0  0  0  0  0  0
   10.8621    5.3595   -0.9730 H   0  0  0  0  0  0  0  0  0  0  0  0
   10.0272    4.0265   -2.8937 H   0  0  0  0  0  0  0  0  0  0  0  0
    7.7302    3.1016   -2.8588 H   0  0  0  0  0  0  0  0  0  0  0  0
  1  2  1  0  0  0  0
  1 24  1  0  0  0  0
  1 25  1  0  0  0  0
  1 26  1  0  0  0  0
  2  3  2  0  0  0  0
  2  7  1  0  0  0  0
  3  4  1  0  0  0  0
  4  5  2  0  0  0  0
  4  8  1  0  0  0  0
  5  6  1  0  0  0  0
  6  7  2  0  0  0  0
  6 27  1  0  0  0  0
  7 28  1  0  0  0  0
  8  9  1  0  0  0  0
  8 29  1  0  0  0  0
  9 10  2  0  0  0  0
  9 30  1  0  0  0  0
 10 11  1  0  0  0  0
 10 15  1  0  0  0  0
 11 12  2  0  0  0  0
 11 13  1  0  0  0  0
 13 14  1  0  0  0  0
 13 31  1  0  0  0  0
 14 32  1  0  0  0  0
 14 33  1  0  0  0  0
 15 16  1  0  0  0  0
 15 34  1  0  0  0  0
 16 17  2  0  0  0  0
 16 18  1  0  0  0  0
 18 19  2  0  0  0  0
 18 23  1  0  0  0  0
 19 20  1  0  0  0  0
 19 35  1  0  0  0  0
 20 21  2  0  0  0  0
 20 36  1  0  0  0  0
 21 22  1  0  0  0  0
 21 37  1  0  0  0  0
 22 23  2  0  0  0  0
 22 38  1  0  0  0  0
 23 39  1  0  0  0  0
M  END
