
 OpenBabel10072620073D

 69 72  0  0  1  0  0  0  0  0999 V2000
   -4.6111   -4.6069   -2.7081 C   0  0  0  0  0  0  0  0  0  0  0  0
   -3.7769   -5.6596   -2.0751 C   0  0  0  0  0  0  0  0  0  0  0  0
   -2.4983   -5.5527   -1.5363 C   0  0  0  0  0  0  0  0  0  0  0  0
   -2.0005   -7.1291   -0.9967 S   0  0  0  0  0  0  0  0  0  0  0  0
   -3.4991   -7.7762   -1.4761 C   0  0  0  0  0  0  0  0  0  0  0  0
   -4.3386   -6.9306   -2.0208 N   0  0  0  0  0  0  0  0  0  0  0  0
   -1.5447   -4.5103   -1.3961 C   0  0  0  0  0  0  0  0  0  0  0  0
   -1.7422   -3.2312   -1.0515 C   0  0  0  0  0  0  0  0  0  0  0  0
   -2.9356   -2.4534   -0.7316 C   0  0  0  0  0  0  0  0  0  0  0  0
   -3.8527   -2.7494    0.2206 C   0  0  0  0  0  0  0  0  0  0  0  0
   -4.9604   -1.9670    0.4291 N   0  0  0  0  0  0  0  0  0  0  0  0
   -5.3324   -0.8052   -0.3502 C   0  0  1  0  0  0  0  0  0  0  0  0
   -6.2028   -0.3614    0.8734 C   0  0  1  0  0  0  0  0  0  0  0  0
   -5.4299   -1.4979    1.6201 C   0  0  0  0  0  0  0  0  0  0  0  0
   -5.1919   -1.8295    2.7558 O   0  0  0  0  0  0  0  0  0  0  0  0
   -6.0716    1.0675    1.2976 N   0  0  0  0  0  0  0  0  0  0  0  0
   -6.8036    1.6068    2.3438 C   0  0  0  0  0  0  0  0  0  0  0  0
   -7.3867    2.6763    2.2194 O   0  0  0  0  0  0  0  0  0  0  0  0
   -6.7298    0.9183    3.7056 C   0  0  0  0  0  0  0  0  0  0  0  0
   -5.9383    1.3740    4.6433 N   0  0  0  0  0  0  0  0  0  0  0  0
   -5.2476    2.5208    4.2018 O   0  0  0  0  0  0  0  0  0  0  0  0
   -4.2287    2.8546    5.1365 C   0  0  0  0  0  0  0  0  0  0  0  0
   -7.5388   -0.2643    3.9870 C   0  0  0  0  0  0  0  0  0  0  0  0
   -7.5762   -0.9392    5.1947 C   0  0  0  0  0  0  0  0  0  0  0  0
   -8.5614   -2.3319    5.0694 S   0  0  0  0  0  0  0  0  0  0  0  0
   -8.9294   -1.9182    3.4512 C   0  0  0  0  0  0  0  0  0  0  0  0
   -8.3514   -0.8312    3.0026 N   0  0  0  0  0  0  0  0  0  0  0  0
   -9.7469   -2.6773    2.7036 N   0  0  0  0  0  0  0  0  0  0  0  0
   -3.8680    0.1969   -0.6976 S   0  0  0  0  0  0  0  0  0  0  0  0
   -2.9745   -1.1526   -1.5202 C   0  0  0  0  0  0  0  0  0  0  0  0
   -3.8117   -4.0015    1.0451 C   0  0  0  0  0  0  0  0  0  0  0  0
   -4.7801   -4.7404    1.1581 O   0  0  0  0  0  0  0  0  0  0  0  0
   -2.6000   -4.1631    1.6168 O   0  0  0  0  0  0  0  0  0  0  0  0
   -2.4649   -5.3380    2.4152 C   0  0  0  0  0  0  0  0  0  0  0  0
   -2.1318   -4.9676    3.7494 O   0  0  0  0  0  0  0  0  0  0  0  0
   -0.8098   -4.7440    3.9632 C   0  0  0  0  0  0  0  0  0  0  0  0
    0.0859   -5.0054    3.1672 O   0  0  0  0  0  0  0  0  0  0  0  0
   -0.6045   -4.0723    5.3185 C   0  0  0  0  0  0  0  0  0  0  0  0
   -1.1506   -4.9777    6.4295 C   0  0  0  0  0  0  0  0  0  0  0  0
    0.8933   -3.8152    5.5435 C   0  0  0  0  0  0  0  0  0  0  0  0
   -1.3424   -2.7252    5.2986 C   0  0  0  0  0  0  0  0  0  0  0  0
   -4.0001   -3.8485   -3.2020 H   0  0  0  0  0  0  0  0  0  0  0  0
   -5.2536   -4.1284   -1.9631 H   0  0  0  0  0  0  0  0  0  0  0  0
   -5.2639   -5.0476   -3.4685 H   0  0  0  0  0  0  0  0  0  0  0  0
   -3.7362   -8.8243   -1.3446 H   0  0  0  0  0  0  0  0  0  0  0  0
   -0.5038   -4.7997   -1.5491 H   0  0  0  0  0  0  0  0  0  0  0  0
   -0.8257   -2.6352   -0.9850 H   0  0  0  0  0  0  0  0  0  0  0  0
   -5.9145   -1.0624   -1.2412 H   0  0  0  0  0  0  0  0  0  0  0  0
   -7.2598   -0.5957    0.6985 H   0  0  0  0  0  0  0  0  0  0  0  0
   -6.0235    1.7411    0.5371 H   0  0  0  0  0  0  0  0  0  0  0  0
   -3.7685    3.7992    4.8308 H   0  0  0  0  0  0  0  0  0  0  0  0
   -3.4536    2.0829    5.1372 H   0  0  0  0  0  0  0  0  0  0  0  0
   -4.6424    2.9844    6.1404 H   0  0  0  0  0  0  0  0  0  0  0  0
   -7.0576   -0.7088    6.1131 H   0  0  0  0  0  0  0  0  0  0  0  0
   -9.8662   -3.6426    2.9899 H   0  0  0  0  0  0  0  0  0  0  0  0
   -9.6586   -2.5637    1.7020 H   0  0  0  0  0  0  0  0  0  0  0  0
   -1.9613   -0.7687   -1.6869 H   0  0  0  0  0  0  0  0  0  0  0  0
   -3.4322   -1.3272   -2.4995 H   0  0  0  0  0  0  0  0  0  0  0  0
   -1.6894   -5.9696    1.9709 H   0  0  0  0  0  0  0  0  0  0  0  0
   -3.3719   -5.9504    2.4724 H   0  0  0  0  0  0  0  0  0  0  0  0
   -0.6744   -5.9645    6.4073 H   0  0  0  0  0  0  0  0  0  0  0  0
   -2.2284   -5.1415    6.3223 H   0  0  0  0  0  0  0  0  0  0  0  0
   -0.9870   -4.5436    7.4209 H   0  0  0  0  0  0  0  0  0  0  0  0
    1.4619   -4.7527    5.5722 H   0  0  0  0  0  0  0  0  0  0  0  0
    1.0692   -3.2835    6.4857 H   0  0  0  0  0  0  0  0  0  0  0  0
    1.3114   -3.2040    4.7340 H   0  0  0  0  0  0  0  0  0  0  0  0
   -2.4269   -2.8612    5.2143 H   0  0  0  0  0  0  0  0  0  0  0  0
   -1.0262   -2.1249    4.4367 H   0  0  0  0  0  0  0  0  0  0  0  0
   -1.1488   -2.1486    6.2093 H   0  0  0  0  0  0  0  0  0  0  0  0
  1  2  1  0  0  0  0
  1 42  1  0  0  0  0
  1 43  1  0  0  0  0
  1 44  1  0  0  0  0
  2  3  2  0  0  0  0
  2  6  1  0  0  0  0
  3  4  1  0  0  0  0
  3  7  1  0  0  0  0
  4  5  1  0  0  0  0
  5  6  2  0  0  0  0
  5 45  1  0  0  0  0
  7  8  2  0  0  0  0
  7 46  1  0  0  0  0
  8  9  1  0  0  0  0
  8 47  1  0  0  0  0
  9 10  2  0  0  0  0
  9 30  1  0  0  0  0
 10 11  1  0  0  0  0
 10 31  1  0  0  0  0
 11 12  1  0  0  0  0
 11 14  1  0  0  0  0
 12 13  1  0  0  0  0
 12 29  1  0  0  0  0
 12 48  1  6  0  0  0
 13 14  1  0  0  0  0
 13 16  1  0  0  0  0
 13 49  1  6  0  0  0
 14 15  2  0  0  0  0
 16 17  1  0  0  0  0
 16 50  1  0  0  0  0
 17 18  2  0  0  0  0
 17 19  1  0  0  0  0
 19 20  2  0  0  0  0
 19 23  1  0  0  0  0
 20 21  1  0  0  0  0
 21 22  1  0  0  0  0
 22 51  1  0  0  0  0
 22 52  1  0  0  0  0
 22 53  1  0  0  0  0
 23 24  2  0  0  0  0
 23 27  1  0  0  0  0
 24 25  1  0  0  0  0
 24 54  1  0  0  0  0
 25 26  1  0  0  0  0
 26 27  2  0  0  0  0
 26 28  1  0  0  0  0
 28 55  1  0  0  0  0
 28 56  1  0  0  0  0
 29 30  1  0  0  0  0
 30 57  1  0  0  0  0
 30 58  1  0  0  0  0
 31 32  2  0  0  0  0
 31 33  1  0  0  0  0
 33 34  1  0  0  0  0
 34 35  1  0  0  0  0
 34 59  1  0  0  0  0
 34 60  1  0  0  0  0
 35 36  1  0  0  0  0
 36 37  2  0  0  0  0
 36 38  1  0  0  0  0
 38 39  1  0  0  0  0
 38 40  1  0  0  0  0
 38 41  1  0  0  0  0
 39 61  1  0  0  0  0
 39 62  1  0  0  0  0
 39 63  1  0  0  0  0
 40 64  1  0  0  0  0
 40 65  1  0  0  0  0
 40 66  1  0  0  0  0
 41 67  1  0  0  0  0
 41 68  1  0  0  0  0
 41 69  1  0  0  0  0
M  END
