
 OpenBabel10072619483D

 70 73  0  0  0  0  0  0  0  0999 V2000
    1.6231    1.5439   -9.9745 C   0  0  0  0  0  0  0  0  0  0  0  0
    0.7036    2.3164   -9.0030 C   0  0  0  0  0  0  0  0  0  0  0  0
   -0.0044    3.4360   -9.7895 C   0  0  0  0  0  0  0  0  0  0  0  0
   -0.3678    1.3111   -8.5192 C   0  0  0  0  0  0  0  0  0  0  0  0
    1.4908    2.9547   -7.8413 C   0  0  0  0  0  0  0  0  0  0  0  0
    2.8084    3.4258   -8.0180 C   0  0  0  0  0  0  0  0  0  0  0  0
    3.5251    4.0133   -6.9679 C   0  0  0  0  0  0  0  0  0  0  0  0
    2.9257    4.1519   -5.7183 C   0  0  0  0  0  0  0  0  0  0  0  0
    1.6177    3.7150   -5.5133 C   0  0  0  0  0  0  0  0  0  0  0  0
    0.9089    3.1318   -6.5707 C   0  0  0  0  0  0  0  0  0  0  0  0
    3.8311    4.8617   -4.3620 S   0  0  0  0  0  0  0  0  0  0  0  0
    3.8516    3.8533   -3.3203 O   0  0  0  0  0  0  0  0  0  0  0  0
    5.0715    5.3879   -4.8979 O   0  0  0  0  0  0  0  0  0  0  0  0
    2.9134    6.1053   -3.8808 N   0  0  0  0  0  0  0  0  0  0  0  0
    3.1999    6.8013   -2.8261 C   0  0  0  0  0  0  0  0  0  0  0  0
    4.3860    6.6499   -1.9401 C   0  0  0  0  0  0  0  0  0  0  0  0
    4.4658    7.2257   -0.7363 C   0  0  0  0  0  0  0  0  0  0  0  0
    3.3741    8.0693   -0.1755 C   0  0  0  0  0  0  0  0  0  0  0  0
    3.2513    8.4792    1.0490 N   0  0  0  0  0  0  0  0  0  0  0  0
    4.3180    8.0812    2.2027 S   0  0  0  0  0  0  0  0  0  0  0  0
    4.3904    6.6363    2.3171 O   0  0  0  0  0  0  0  0  0  0  0  0
    5.5303    8.8515    1.9996 O   0  0  0  0  0  0  0  0  0  0  0  0
    3.5626    8.6660    3.7087 C   0  0  0  0  0  0  0  0  0  0  0  0
    2.6039    7.8723    4.3397 C   0  0  0  0  0  0  0  0  0  0  0  0
    2.0589    8.2753    5.5644 C   0  0  0  0  0  0  0  0  0  0  0  0
    2.4666    9.4678    6.1878 C   0  0  0  0  0  0  0  0  0  0  0  0
    3.4327   10.2527    5.5208 C   0  0  0  0  0  0  0  0  0  0  0  0
    3.9800    9.8595    4.2939 C   0  0  0  0  0  0  0  0  0  0  0  0
    1.9107    9.9219    7.5519 C   0  0  0  0  0  0  0  0  0  0  0  0
    0.8595    8.9620    8.1558 C   0  0  0  0  0  0  0  0  0  0  0  0
    3.0660   10.0182    8.5720 C   0  0  0  0  0  0  0  0  0  0  0  0
    1.2393   11.3053    7.4038 C   0  0  0  0  0  0  0  0  0  0  0  0
    2.3436    8.4910   -1.1702 C   0  0  0  0  0  0  0  0  0  0  0  0
    1.4395    9.5107   -0.8326 C   0  0  0  0  0  0  0  0  0  0  0  0
    0.4680    9.9248   -1.7457 C   0  0  0  0  0  0  0  0  0  0  0  0
    0.3881    9.3257   -2.9996 C   0  0  0  0  0  0  0  0  0  0  0  0
    1.2824    8.3132   -3.3439 C   0  0  0  0  0  0  0  0  0  0  0  0
    2.2651    7.8920   -2.4330 C   0  0  0  0  0  0  0  0  0  0  0  0
    1.0374    1.0198  -10.7384 H   0  0  0  0  0  0  0  0  0  0  0  0
    2.2232    0.7970   -9.4428 H   0  0  0  0  0  0  0  0  0  0  0  0
    2.3074    2.2083  -10.5128 H   0  0  0  0  0  0  0  0  0  0  0  0
   -0.5696    3.0262  -10.6349 H   0  0  0  0  0  0  0  0  0  0  0  0
    0.7127    4.1609  -10.1919 H   0  0  0  0  0  0  0  0  0  0  0  0
   -0.7085    3.9874   -9.1555 H   0  0  0  0  0  0  0  0  0  0  0  0
   -0.8477    0.8076   -9.3667 H   0  0  0  0  0  0  0  0  0  0  0  0
   -1.1716    1.8001   -7.9584 H   0  0  0  0  0  0  0  0  0  0  0  0
    0.0707    0.5375   -7.8787 H   0  0  0  0  0  0  0  0  0  0  0  0
    3.3109    3.3462   -8.9793 H   0  0  0  0  0  0  0  0  0  0  0  0
    4.5456    4.3519   -7.1370 H   0  0  0  0  0  0  0  0  0  0  0  0
    1.1436    3.8157   -4.5394 H   0  0  0  0  0  0  0  0  0  0  0  0
   -0.1119    2.8134   -6.3742 H   0  0  0  0  0  0  0  0  0  0  0  0
    5.2101    6.0324   -2.2825 H   0  0  0  0  0  0  0  0  0  0  0  0
    5.3543    7.0583   -0.1358 H   0  0  0  0  0  0  0  0  0  0  0  0
    2.2878    6.9304    3.8967 H   0  0  0  0  0  0  0  0  0  0  0  0
    1.3187    7.6229    6.0212 H   0  0  0  0  0  0  0  0  0  0  0  0
    3.7853   11.1841    5.9611 H   0  0  0  0  0  0  0  0  0  0  0  0
    4.7352   10.4818    3.8193 H   0  0  0  0  0  0  0  0  0  0  0  0
    1.2736    7.9597    8.3175 H   0  0  0  0  0  0  0  0  0  0  0  0
   -0.0217    8.8669    7.5108 H   0  0  0  0  0  0  0  0  0  0  0  0
    0.5117    9.3233    9.1316 H   0  0  0  0  0  0  0  0  0  0  0  0
    3.5748    9.0528    8.6814 H   0  0  0  0  0  0  0  0  0  0  0  0
    2.6962   10.3121    9.5616 H   0  0  0  0  0  0  0  0  0  0  0  0
    3.8196   10.7554    8.2753 H   0  0  0  0  0  0  0  0  0  0  0  0
    0.4378   11.2761    6.6558 H   0  0  0  0  0  0  0  0  0  0  0  0
    1.9506   12.0774    7.0907 H   0  0  0  0  0  0  0  0  0  0  0  0
    0.7987   11.6407    8.3505 H   0  0  0  0  0  0  0  0  0  0  0  0
    1.4826    9.9933    0.1419 H   0  0  0  0  0  0  0  0  0  0  0  0
   -0.2246   10.7195   -1.4798 H   0  0  0  0  0  0  0  0  0  0  0  0
   -0.3701    9.6417   -3.7124 H   0  0  0  0  0  0  0  0  0  0  0  0
    1.2103    7.8586   -4.3297 H   0  0  0  0  0  0  0  0  0  0  0  0
  1  2  1  0  0  0  0
  1 39  1  0  0  0  0
  1 40  1  0  0  0  0
  1 41  1  0  0  0  0
  2  3  1  0  0  0  0
  2  4  1  0  0  0  0
  2  5  1  0  0  0  0
  3 42  1  0  0  0  0
  3 43  1  0  0  0  0
  3 44  1  0  0  0  0
  4 45  1  0  0  0  0
  4 46  1  0  0  0  0
  4 47  1  0  0  0  0
  5  6  2  0  0  0  0
  5 10  1  0  0  0  0
  6  7  1  0  0  0  0
  6 48  1  0  0  0  0
  7  8  2  0  0  0  0
  7 49  1  0  0  0  0
  8  9  1  0  0  0  0
  8 11  1  0  0  0  0
  9 10  2  0  0  0  0
  9 50  1  0  0  0  0
 10 51  1  0  0  0  0
 11 12  2  0  0  0  0
 11 13  2  0  0  0  0
 11 14  1  0  0  0  0
 14 15  2  3  0  0  0
 15 16  1  0  0  0  0
 15 38  1  0  0  0  0
 16 17  2  0  0  0  0
 16 52  1  0  0  0  0
 17 18  1  0  0  0  0
 17 53  1  0  0  0  0
 18 19  2  3  0  0  0
 18 33  1  0  0  0  0
 19 20  1  0  0  0  0
 20 21  2  0  0  0  0
 20 22  2  0  0  0  0
 20 23  1  0  0  0  0
 23 24  2  0  0  0  0
 23 28  1  0  0  0  0
 24 25  1  0  0  0  0
 24 54  1  0  0  0  0
 25 26  2  0  0  0  0
 25 55  1  0  0  0  0
 26 27  1  0  0  0  0
 26 29  1  0  0  0  0
 27 28  2  0  0  0  0
 27 56  1  0  0  0  0
 28 57  1  0  0  0  0
 29 30  1  0  0  0  0
 29 31  1  0  0  0  0
 29 32  1  0  0  0  0
 30 58  1  0  0  0  0
 30 59  1  0  0  0  0
 30 60  1  0  0  0  0
 31 61  1  0  0  0  0
 31 62  1  0  0  0  0
 31 63  1  0  0  0  0
 32 64  1  0  0  0  0
 32 65  1  0  0  0  0
 32 66  1  0  0  0  0
 33 34  2  0  0  0  0
 33 38  1  0  0  0  0
 34 35  1  0  0  0  0
 34 67  1  0  0  0  0
 35 36  2  0  0  0  0
 35 68  1  0  0  0  0
 36 37  1  0  0  0  0
 36 69  1  0  0  0  0
 37 38  2  0  0  0  0
 37 70  1  0  0  0  0
M  END
