
 OpenBabel10072620073D

 42 44  0  0  0  0  0  0  0  0999 V2000
   -0.9743    1.1238   -4.6682 C   0  0  0  0  0  0  0  0  0  0  0  0
   -1.2099    2.0297   -3.6376 C   0  0  0  0  0  0  0  0  0  0  0  0
   -1.7845    1.5911   -2.4427 C   0  0  0  0  0  0  0  0  0  0  0  0
   -2.1489    0.2487   -2.2715 C   0  0  0  0  0  0  0  0  0  0  0  0
   -1.8776   -0.6557   -3.3025 C   0  0  0  0  0  0  0  0  0  0  0  0
   -1.3046   -0.2190   -4.4993 C   0  0  0  0  0  0  0  0  0  0  0  0
   -2.6422   -0.1627   -1.0138 N   0  0  0  0  0  0  0  0  0  0  0  0
   -3.5711   -1.1873   -0.7225 C   0  0  0  0  0  0  0  0  0  0  0  0
   -3.5594   -1.7706    0.5492 C   0  0  0  0  0  0  0  0  0  0  0  0
   -4.5282   -2.7096    0.9227 C   0  0  0  0  0  0  0  0  0  0  0  0
   -5.5730   -3.0484    0.0574 C   0  0  0  0  0  0  0  0  0  0  0  0
   -5.5824   -2.4861   -1.2185 C   0  0  0  0  0  0  0  0  0  0  0  0
   -4.6003   -1.5521   -1.5967 C   0  0  0  0  0  0  0  0  0  0  0  0
   -6.5334   -3.9656    0.5481 N   0  0  0  0  0  0  0  0  0  0  0  0
   -7.8932   -4.0950    0.2684 C   0  0  0  0  0  0  0  0  0  0  0  0
   -8.8435   -3.0440   -0.6163 S   0  0  0  0  0  0  0  0  0  0  0  0
   -8.3876   -5.2144    0.9310 N   0  0  0  0  0  0  0  0  0  0  0  0
   -9.7813   -5.6191    1.0958 C   0  0  0  0  0  0  0  0  0  0  0  0
   -9.9826   -7.0488    0.6848 C   0  0  0  0  0  0  0  0  0  0  0  0
   -9.9224   -8.0836    1.6131 C   0  0  0  0  0  0  0  0  0  0  0  0
  -10.0769   -9.3921    1.3083 N   0  0  0  0  0  0  0  0  0  0  0  0
  -10.3009   -9.6893    0.0106 C   0  0  0  0  0  0  0  0  0  0  0  0
  -10.3756   -8.7392   -0.9936 C   0  0  0  0  0  0  0  0  0  0  0  0
  -10.2098   -7.4000   -0.6488 C   0  0  0  0  0  0  0  0  0  0  0  0
   -0.5255    1.4618   -5.5984 H   0  0  0  0  0  0  0  0  0  0  0  0
   -0.9430    3.0756   -3.7599 H   0  0  0  0  0  0  0  0  0  0  0  0
   -1.9663    2.3077   -1.6453 H   0  0  0  0  0  0  0  0  0  0  0  0
   -2.0957   -1.7123   -3.1758 H   0  0  0  0  0  0  0  0  0  0  0  0
   -1.1070   -0.9321   -5.2944 H   0  0  0  0  0  0  0  0  0  0  0  0
   -1.8788   -0.1543   -0.3415 H   0  0  0  0  0  0  0  0  0  0  0  0
   -2.8000   -1.4916    1.2751 H   0  0  0  0  0  0  0  0  0  0  0  0
   -4.4791   -3.1287    1.9241 H   0  0  0  0  0  0  0  0  0  0  0  0
   -6.3315   -2.7589   -1.9540 H   0  0  0  0  0  0  0  0  0  0  0  0
   -4.6700   -1.0949   -2.5818 H   0  0  0  0  0  0  0  0  0  0  0  0
   -6.2744   -4.3967    1.4255 H   0  0  0  0  0  0  0  0  0  0  0  0
   -7.7041   -5.8911    1.2390 H   0  0  0  0  0  0  0  0  0  0  0  0
  -10.4706   -4.9696    0.5501 H   0  0  0  0  0  0  0  0  0  0  0  0
  -10.0186   -5.5026    2.1609 H   0  0  0  0  0  0  0  0  0  0  0  0
   -9.7369   -7.8891    2.6660 H   0  0  0  0  0  0  0  0  0  0  0  0
  -10.4133  -10.7470   -0.2097 H   0  0  0  0  0  0  0  0  0  0  0  0
  -10.5531   -9.0351   -2.0218 H   0  0  0  0  0  0  0  0  0  0  0  0
  -10.2580   -6.6347   -1.4200 H   0  0  0  0  0  0  0  0  0  0  0  0
  1  2  2  0  0  0  0
  1  6  1  0  0  0  0
  1 25  1  0  0  0  0
  2  3  1  0  0  0  0
  2 26  1  0  0  0  0
  3  4  2  0  0  0  0
  3 27  1  0  0  0  0
  4  5  1  0  0  0  0
  4  7  1  0  0  0  0
  5  6  2  0  0  0  0
  5 28  1  0  0  0  0
  6 29  1  0  0  0  0
  7  8  1  0  0  0  0
  7 30  1  0  0  0  0
  8  9  2  0  0  0  0
  8 13  1  0  0  0  0
  9 10  1  0  0  0  0
  9 31  1  0  0  0  0
 10 11  2  0  0  0  0
 10 32  1  0  0  0  0
 11 12  1  0  0  0  0
 11 14  1  0  0  0  0
 12 13  2  0  0  0  0
 12 33  1  0  0  0  0
 13 34  1  0  0  0  0
 14 15  1  0  0  0  0
 14 35  1  0  0  0  0
 15 16  2  0  0  0  0
 15 17  1  0  0  0  0
 17 18  1  0  0  0  0
 17 36  1  0  0  0  0
 18 19  1  0  0  0  0
 18 37  1  0  0  0  0
 18 38  1  0  0  0  0
 19 20  2  0  0  0  0
 19 24  1  0  0  0  0
 20 21  1  0  0  0  0
 20 39  1  0  0  0  0
 21 22  2  0  0  0  0
 22 23  1  0  0  0  0
 22 40  1  0  0  0  0
 23 24  2  0  0  0  0
 23 41  1  0  0  0  0
 24 42  1  0  0  0  0
M  END
