
 OpenBabel10072620033D

 50 52  0  0  1  0  0  0  0  0999 V2000
    1.8516   -1.0258   -0.0149 C   0  0  0  0  0  0  0  0  0  0  0  0
    1.1288    0.1344   -0.7061 C   0  0  0  0  0  0  0  0  0  0  0  0
    0.5290    1.0865    0.3293 C   0  0  0  0  0  0  0  0  0  0  0  0
    1.9932    0.8974   -1.6985 C   0  0  0  0  0  0  0  0  0  0  0  0
    1.3945    1.4130   -2.8615 C   0  0  0  0  0  0  0  0  0  0  0  0
    2.1505    2.1050   -3.8086 C   0  0  0  0  0  0  0  0  0  0  0  0
    3.5164    2.3001   -3.5937 C   0  0  0  0  0  0  0  0  0  0  0  0
    4.1304    1.8036   -2.4431 C   0  0  0  0  0  0  0  0  0  0  0  0
    3.3660    1.1160   -1.4951 C   0  0  0  0  0  0  0  0  0  0  0  0
    4.4777    3.1112   -4.8575 S   0  0  0  0  0  0  0  0  0  0  0  0
    5.8779    2.9289   -4.5346 O   0  0  0  0  0  0  0  0  0  0  0  0
    3.9521    2.6489   -6.1215 O   0  0  0  0  0  0  0  0  0  0  0  0
    4.0724    4.7525   -4.5895 N   0  0  0  0  0  0  0  0  0  0  0  0
    4.8315    5.3725   -3.4561 C   0  0  0  0  0  0  0  0  0  0  0  0
    6.2121    5.8282   -3.8381 C   0  0  3  0  0  0  0  0  0  0  0  0
    7.2302    6.1659   -2.7764 C   0  0  0  0  0  0  0  0  0  0  0  0
    6.5228    7.1850   -3.4903 O   0  0  0  0  0  0  0  0  0  0  0  0
    3.8370    5.6386   -5.7828 C   0  0  3  0  0  0  0  0  0  0  0  0
    2.6483    5.1598   -6.6339 C   0  0  0  0  0  0  0  0  0  0  0  0
    3.5365    7.0977   -5.4225 C   0  0  0  0  0  0  0  0  0  0  0  0
    4.3741    8.1222   -5.8905 C   0  0  0  0  0  0  0  0  0  0  0  0
    4.0984    9.4584   -5.5935 C   0  0  0  0  0  0  0  0  0  0  0  0
    2.9807    9.7896   -4.8307 C   0  0  0  0  0  0  0  0  0  0  0  0
    2.1342    8.7861   -4.3646 C   0  0  0  0  0  0  0  0  0  0  0  0
    2.4101    7.4488   -4.6563 C   0  0  0  0  0  0  0  0  0  0  0  0
    1.1444   -1.6212    0.5728 H   0  0  0  0  0  0  0  0  0  0  0  0
    2.6312   -0.6778    0.6706 H   0  0  0  0  0  0  0  0  0  0  0  0
    2.3191   -1.6905   -0.7492 H   0  0  0  0  0  0  0  0  0  0  0  0
    0.2973   -0.3165   -1.2646 H   0  0  0  0  0  0  0  0  0  0  0  0
    1.3046    1.5506    0.9475 H   0  0  0  0  0  0  0  0  0  0  0  0
   -0.1586    0.5528    0.9942 H   0  0  0  0  0  0  0  0  0  0  0  0
   -0.0362    1.8912   -0.1531 H   0  0  0  0  0  0  0  0  0  0  0  0
    0.3316    1.2628   -3.0450 H   0  0  0  0  0  0  0  0  0  0  0  0
    1.6731    2.4714   -4.7142 H   0  0  0  0  0  0  0  0  0  0  0  0
    5.1972    1.9330   -2.2786 H   0  0  0  0  0  0  0  0  0  0  0  0
    3.8634    0.7415   -0.6032 H   0  0  0  0  0  0  0  0  0  0  0  0
    4.9141    4.6463   -2.6389 H   0  0  0  0  0  0  0  0  0  0  0  0
    4.2489    6.1924   -3.0241 H   0  0  0  0  0  0  0  0  0  0  0  0
    6.5838    5.4432   -4.7770 H   0  0  0  0  0  0  0  0  0  0  0  0
    8.2774    6.0226   -3.0142 H   0  0  0  0  0  0  0  0  0  0  0  0
    6.9814    6.0253   -1.7328 H   0  0  0  0  0  0  0  0  0  0  0  0
    4.7405    5.6139   -6.4059 H   0  0  0  0  0  0  0  0  0  0  0  0
    1.8014    4.8547   -6.0092 H   0  0  0  0  0  0  0  0  0  0  0  0
    2.9153    4.3179   -7.2751 H   0  0  0  0  0  0  0  0  0  0  0  0
    2.2978    5.9415   -7.3198 H   0  0  0  0  0  0  0  0  0  0  0  0
    5.2539    7.8880   -6.4857 H   0  0  0  0  0  0  0  0  0  0  0  0
    4.7600   10.2408   -5.9566 H   0  0  0  0  0  0  0  0  0  0  0  0
    2.7695   10.8306   -4.6009 H   0  0  0  0  0  0  0  0  0  0  0  0
    1.2595    9.0454   -3.7738 H   0  0  0  0  0  0  0  0  0  0  0  0
    1.7423    6.6770   -4.2793 H   0  0  0  0  0  0  0  0  0  0  0  0
  1  2  1  0  0  0  0
  1 26  1  0  0  0  0
  1 27  1  0  0  0  0
  1 28  1  0  0  0  0
  2  3  1  0  0  0  0
  2  4  1  0  0  0  0
  2 29  1  0  0  0  0
  3 30  1  0  0  0  0
  3 31  1  0  0  0  0
  3 32  1  0  0  0  0
  4  5  2  0  0  0  0
  4  9  1  0  0  0  0
  5  6  1  0  0  0  0
  5 33  1  0  0  0  0
  6  7  2  0  0  0  0
  6 34  1  0  0  0  0
  7  8  1  0  0  0  0
  7 10  1  0  0  0  0
  8  9  2  0  0  0  0
  8 35  1  0  0  0  0
  9 36  1  0  0  0  0
 10 11  2  0  0  0  0
 10 12  2  0  0  0  0
 10 13  1  0  0  0  0
 13 14  1  0  0  0  0
 13 18  1  0  0  0  0
 14 15  1  0  0  0  0
 14 37  1  0  0  0  0
 14 38  1  0  0  0  0
 15 16  1  0  0  0  0
 15 17  1  0  0  0  0
 15 39  1  0  0  0  0
 16 17  1  0  0  0  0
 16 40  1  0  0  0  0
 16 41  1  0  0  0  0
 18 19  1  0  0  0  0
 18 20  1  0  0  0  0
 18 42  1  0  0  0  0
 19 43  1  0  0  0  0
 19 44  1  0  0  0  0
 19 45  1  0  0  0  0
 20 21  2  0  0  0  0
 20 25  1  0  0  0  0
 21 22  1  0  0  0  0
 21 46  1  0  0  0  0
 22 23  2  0  0  0  0
 22 47  1  0  0  0  0
 23 24  1  0  0  0  0
 23 48  1  0  0  0  0
 24 25  2  0  0  0  0
 24 49  1  0  0  0  0
 25 50  1  0  0  0  0
M  END
