
 OpenBabel10072620033D

 57 60  0  0  0  0  0  0  0  0999 V2000
   -4.0387   -4.4165    3.2337 C   0  0  0  0  0  0  0  0  0  0  0  0
   -2.9463   -3.6228    2.8808 C   0  0  0  0  0  0  0  0  0  0  0  0
   -3.1509   -2.3266    2.4087 C   0  0  0  0  0  0  0  0  0  0  0  0
   -4.4491   -1.8374    2.2620 C   0  0  0  0  0  0  0  0  0  0  0  0
   -5.5448   -2.6254    2.6257 C   0  0  0  0  0  0  0  0  0  0  0  0
   -5.3364   -3.9177    3.1105 C   0  0  0  0  0  0  0  0  0  0  0  0
   -4.5830   -0.5375    1.8310 O   0  0  0  0  0  0  0  0  0  0  0  0
   -5.4886   -0.2914    0.8239 C   0  0  0  0  0  0  0  0  0  0  0  0
   -6.2785    0.8508    0.9536 C   0  0  0  0  0  0  0  0  0  0  0  0
   -7.1890    1.1849   -0.0478 C   0  0  0  0  0  0  0  0  0  0  0  0
   -7.2982    0.3845   -1.1855 C   0  0  0  0  0  0  0  0  0  0  0  0
   -6.4825   -0.7468   -1.3406 C   0  0  0  0  0  0  0  0  0  0  0  0
   -5.5764   -1.0818   -0.3251 C   0  0  0  0  0  0  0  0  0  0  0  0
   -6.6065   -1.6074   -2.5702 C   0  0  0  0  0  0  0  0  0  0  0  0
   -7.6493   -2.5570   -2.3326 O   0  0  0  0  0  0  0  0  0  0  0  0
   -8.5257   -2.7292   -3.3475 C   0  0  0  0  0  0  0  0  0  0  0  0
   -8.5004   -2.1911   -4.4412 O   0  0  0  0  0  0  0  0  0  0  0  0
   -9.5539   -3.6870   -2.8898 C   0  0  0  0  0  0  0  0  0  0  0  0
  -10.6295   -3.9295   -3.6540 C   0  0  0  0  0  0  0  0  0  0  0  0
  -11.7247   -4.8360   -3.2817 C   0  0  0  0  0  0  0  0  0  0  0  0
  -12.0994   -5.0579   -1.9518 C   0  0  0  0  0  0  0  0  0  0  0  0
  -13.1822   -5.8876   -1.6480 C   0  0  0  0  0  0  0  0  0  0  0  0
  -13.9291   -6.4824   -2.6638 C   0  0  0  0  0  0  0  0  0  0  0  0
  -13.5623   -6.2701   -3.9914 C   0  0  0  0  0  0  0  0  0  0  0  0
  -12.4689   -5.4495   -4.2970 C   0  0  0  0  0  0  0  0  0  0  0  0
  -14.9764   -7.2524   -2.2369 O   0  0  0  0  0  0  0  0  0  0  0  0
  -16.0362   -7.4474   -3.1783 C   0  0  0  0  0  0  0  0  0  0  0  0
  -17.2849   -8.0042   -2.5203 C   0  0  0  0  0  0  0  0  0  0  0  0
  -17.3134   -8.3602   -1.1595 C   0  0  0  0  0  0  0  0  0  0  0  0
  -18.4836   -8.8474   -0.5685 C   0  0  0  0  0  0  0  0  0  0  0  0
  -19.6414   -8.9962   -1.3263 C   0  0  0  0  0  0  0  0  0  0  0  0
  -19.6275   -8.6660   -2.6790 C   0  0  0  0  0  0  0  0  0  0  0  0
  -18.4609   -8.1749   -3.2721 C   0  0  0  0  0  0  0  0  0  0  0  0
  -18.5243   -7.7867   -4.9571 Cl  0  0  0  0  0  0  0  0  0  0  0  0
   -3.8764   -5.4226    3.6120 H   0  0  0  0  0  0  0  0  0  0  0  0
   -1.9359   -4.0098    2.9820 H   0  0  0  0  0  0  0  0  0  0  0  0
   -2.3006   -1.7013    2.1503 H   0  0  0  0  0  0  0  0  0  0  0  0
   -6.5559   -2.2370    2.5427 H   0  0  0  0  0  0  0  0  0  0  0  0
   -6.1841   -4.5346    3.3987 H   0  0  0  0  0  0  0  0  0  0  0  0
   -6.1862    1.4769    1.8369 H   0  0  0  0  0  0  0  0  0  0  0  0
   -7.8114    2.0696    0.0556 H   0  0  0  0  0  0  0  0  0  0  0  0
   -8.0173    0.6516   -1.9581 H   0  0  0  0  0  0  0  0  0  0  0  0
   -4.9397   -1.9563   -0.4349 H   0  0  0  0  0  0  0  0  0  0  0  0
   -5.6787   -2.1618   -2.7485 H   0  0  0  0  0  0  0  0  0  0  0  0
   -6.7818   -0.9733   -3.4467 H   0  0  0  0  0  0  0  0  0  0  0  0
   -9.3912   -4.1566   -1.9275 H   0  0  0  0  0  0  0  0  0  0  0  0
  -10.7286   -3.4345   -4.6197 H   0  0  0  0  0  0  0  0  0  0  0  0
  -11.5731   -4.5772   -1.1314 H   0  0  0  0  0  0  0  0  0  0  0  0
  -13.4580   -6.0477   -0.6093 H   0  0  0  0  0  0  0  0  0  0  0  0
  -14.1010   -6.7301   -4.8126 H   0  0  0  0  0  0  0  0  0  0  0  0
  -12.2040   -5.2978   -5.3419 H   0  0  0  0  0  0  0  0  0  0  0  0
  -15.7021   -8.1569   -3.9443 H   0  0  0  0  0  0  0  0  0  0  0  0
  -16.2951   -6.4822   -3.6320 H   0  0  0  0  0  0  0  0  0  0  0  0
  -16.4236   -8.2550   -0.5406 H   0  0  0  0  0  0  0  0  0  0  0  0
  -18.4904   -9.1107    0.4865 H   0  0  0  0  0  0  0  0  0  0  0  0
  -20.5516   -9.3732   -0.8672 H   0  0  0  0  0  0  0  0  0  0  0  0
  -20.5308   -8.7933   -3.2690 H   0  0  0  0  0  0  0  0  0  0  0  0
  1  2  2  0  0  0  0
  1  6  1  0  0  0  0
  1 35  1  0  0  0  0
  2  3  1  0  0  0  0
  2 36  1  0  0  0  0
  3  4  2  0  0  0  0
  3 37  1  0  0  0  0
  4  5  1  0  0  0  0
  4  7  1  0  0  0  0
  5  6  2  0  0  0  0
  5 38  1  0  0  0  0
  6 39  1  0  0  0  0
  7  8  1  0  0  0  0
  8  9  2  0  0  0  0
  8 13  1  0  0  0  0
  9 10  1  0  0  0  0
  9 40  1  0  0  0  0
 10 11  2  0  0  0  0
 10 41  1  0  0  0  0
 11 12  1  0  0  0  0
 11 42  1  0  0  0  0
 12 13  2  0  0  0  0
 12 14  1  0  0  0  0
 13 43  1  0  0  0  0
 14 15  1  0  0  0  0
 14 44  1  0  0  0  0
 14 45  1  0  0  0  0
 15 16  1  0  0  0  0
 16 17  2  0  0  0  0
 16 18  1  0  0  0  0
 18 19  2  0  0  0  0
 18 46  1  0  0  0  0
 19 20  1  0  0  0  0
 19 47  1  0  0  0  0
 20 21  2  0  0  0  0
 20 25  1  0  0  0  0
 21 22  1  0  0  0  0
 21 48  1  0  0  0  0
 22 23  2  0  0  0  0
 22 49  1  0  0  0  0
 23 24  1  0  0  0  0
 23 26  1  0  0  0  0
 24 25  2  0  0  0  0
 24 50  1  0  0  0  0
 25 51  1  0  0  0  0
 26 27  1  0  0  0  0
 27 28  1  0  0  0  0
 27 52  1  0  0  0  0
 27 53  1  0  0  0  0
 28 29  2  0  0  0  0
 28 33  1  0  0  0  0
 29 30  1  0  0  0  0
 29 54  1  0  0  0  0
 30 31  2  0  0  0  0
 30 55  1  0  0  0  0
 31 32  1  0  0  0  0
 31 56  1  0  0  0  0
 32 33  2  0  0  0  0
 32 57  1  0  0  0  0
 33 34  1  0  0  0  0
M  END
