
 OpenBabel10072620223D

 31 31  0  0  0  0  0  0  0  0999 V2000
    0.6282    1.4325   -0.3124 C   0  0  0  0  0  0  0  0  0  0  0  0
    1.3741    0.2476    0.2955 C   0  0  0  0  0  0  0  0  0  0  0  0
    0.8574   -1.0870   -0.2198 C   0  0  0  0  0  0  0  0  0  0  0  0
   -0.8259   -1.4238    0.2218 S   0  0  0  0  0  0  0  0  0  0  0  0
   -1.2239   -2.5895   -0.5470 O   0  0  0  0  0  0  0  0  0  0  0  0
   -0.9208   -1.4493    1.6675 O   0  0  0  0  0  0  0  0  0  0  0  0
   -1.7348   -0.0675   -0.4118 C   0  0  0  0  0  0  0  0  0  0  0  0
   -1.1043    1.4905    0.0807 S   0  0  0  0  0  0  0  0  0  0  0  0
   -1.2689    1.6401    1.5117 O   0  0  0  0  0  0  0  0  0  0  0  0
   -1.6978    2.4665   -0.8173 O   0  0  0  0  0  0  0  0  0  0  0  0
    1.4492    0.2930    1.7485 N   0  0  0  0  0  0  0  0  0  0  0  0
    2.2134    1.2396    2.4083 C   0  0  0  0  0  0  0  0  0  0  0  0
    2.8871    2.0424    1.7631 O   0  0  0  0  0  0  0  0  0  0  0  0
    2.1339    1.1999    3.7992 N   0  0  0  0  0  0  0  0  0  0  0  0
    1.1742    0.3829    4.5527 C   0  0  0  0  0  0  0  0  0  0  0  0
    1.6877   -1.0320    4.7623 C   0  0  0  0  0  0  0  0  0  0  0  0
    1.8140   -1.6434    3.5483 F   0  0  0  0  0  0  0  0  0  0  0  0
    3.0647    1.9976    4.4819 N   0  0  0  0  0  0  0  0  0  0  0  0
    3.0737    1.8299    5.7055 O   0  0  0  0  0  0  0  0  0  0  0  0
    0.6993    1.4044   -1.4059 H   0  0  0  0  0  0  0  0  0  0  0  0
    1.0452    2.3897    0.0152 H   0  0  0  0  0  0  0  0  0  0  0  0
    2.4141    0.3239   -0.0505 H   0  0  0  0  0  0  0  0  0  0  0  0
    1.4522   -1.9135    0.1854 H   0  0  0  0  0  0  0  0  0  0  0  0
    0.9203   -1.1337   -1.3127 H   0  0  0  0  0  0  0  0  0  0  0  0
   -2.7704   -0.1506   -0.0746 H   0  0  0  0  0  0  0  0  0  0  0  0
   -1.7063   -0.1186   -1.5037 H   0  0  0  0  0  0  0  0  0  0  0  0
    1.3316   -0.5854    2.2565 H   0  0  0  0  0  0  0  0  0  0  0  0
    0.2344    0.3522    3.9894 H   0  0  0  0  0  0  0  0  0  0  0  0
    0.9440    0.8502    5.5166 H   0  0  0  0  0  0  0  0  0  0  0  0
    0.9810   -1.6178    5.3560 H   0  0  0  0  0  0  0  0  0  0  0  0
    2.6670   -1.0460    5.2489 H   0  0  0  0  0  0  0  0  0  0  0  0
  1  2  1  0  0  0  0
  1  8  1  0  0  0  0
  1 20  1  0  0  0  0
  1 21  1  0  0  0  0
  2  3  1  0  0  0  0
  2 11  1  0  0  0  0
  2 22  1  0  0  0  0
  3  4  1  0  0  0  0
  3 23  1  0  0  0  0
  3 24  1  0  0  0  0
  4  5  2  0  0  0  0
  4  6  2  0  0  0  0
  4  7  1  0  0  0  0
  7  8  1  0  0  0  0
  7 25  1  0  0  0  0
  7 26  1  0  0  0  0
  8  9  2  0  0  0  0
  8 10  2  0  0  0  0
 11 12  1  0  0  0  0
 11 27  1  0  0  0  0
 12 13  2  0  0  0  0
 12 14  1  0  0  0  0
 14 15  1  0  0  0  0
 14 18  1  0  0  0  0
 15 16  1  0  0  0  0
 15 28  1  0  0  0  0
 15 29  1  0  0  0  0
 16 17  1  0  0  0  0
 16 30  1  0  0  0  0
 16 31  1  0  0  0  0
 18 19  2  0  0  0  0
M  END
