
 OpenBabel10072620023D

 40 40  0  0  1  0  0  0  0  0999 V2000
   -1.5480   -1.7530    0.0190 C   0  0  0  0  0  0  0  0  0  0  0  0
   -0.4080   -0.7750    0.0030 C   0  0  0  0  0  0  0  0  0  0  0  0
    0.8270   -1.2900   -0.0130 N   0  0  0  0  0  0  0  0  0  0  0  0
    1.8820   -0.4720   -0.0110 C   0  0  0  0  0  0  0  0  0  0  0  0
    1.7670    0.9240    0.0220 C   0  0  0  0  0  0  0  0  0  0  0  0
    0.4770    1.4640    0.0040 C   0  0  0  0  0  0  0  0  0  0  0  0
   -0.6210    0.6040   -0.0140 C   0  0  0  0  0  0  0  0  0  0  0  0
   -1.8870    1.1350   -0.0060 O   0  0  0  0  0  0  0  0  0  0  0  0
    0.2739    2.9704    0.0041 C   0  0  0  0  0  0  0  0  0  0  0  0
    1.1723    3.7553   -0.5508 N   0  3  0  0  0  0  0  0  0  0  0  0
    0.9759    5.2121   -0.5508 C   0  0  3  0  0  0  0  0  0  0  0  0
    1.5998    5.8074    0.7009 C   0  0  0  0  0  0  0  0  0  0  0  0
    3.0876    5.4967    0.7223 C   0  0  0  0  0  0  0  0  0  0  0  0
    3.6112    4.8301   -0.2246 O   0  0  0  0  0  0  0  0  0  0  0  0
    3.8924    5.9513    1.8002 O   0  0  0  0  0  0  0  0  0  0  0  0
    1.6366    5.8124   -1.7810 C   0  0  0  0  0  0  0  0  0  0  0  0
    2.2379    5.0602   -2.6103 O   0  0  0  0  0  0  0  0  0  0  0  0
    1.5820    7.2138   -2.0037 O   0  0  0  0  0  0  0  0  0  0  0  0
    2.9961    1.8166    0.0753 C   0  0  0  0  0  0  0  0  0  0  0  0
    2.9568    2.6064    1.2547 O   0  0  0  0  0  0  0  0  0  0  0  0
    2.9350    1.5717    2.6411 P   0  0  0  0  0  0  0  0  0  0  0  0
    4.2936    0.9665    2.2107 O   0  0  0  0  0  0  0  0  0  0  0  0
    2.8943    2.9581    3.6751 O   0  0  0  0  0  0  0  0  0  0  0  0
    2.9131    0.5371    4.0274 O   0  0  0  0  0  0  0  0  0  0  0  0
   -1.1618   -2.7508    0.0306 H   0  0  0  0  0  0  0  0  0  0  0  0
   -2.1498   -1.6136   -0.8547 H   0  0  0  0  0  0  0  0  0  0  0  0
   -2.1445   -1.5912    0.8925 H   0  0  0  0  0  0  0  0  0  0  0  0
    2.8264   -0.8873   -0.0349 H   0  0  0  0  0  0  0  0  0  0  0  0
   -2.0053    2.0644   -0.0178 H   0  0  0  0  0  0  0  0  0  0  0  0
   -0.5686    3.3774    0.4393 H   0  0  0  0  0  0  0  0  0  0  0  0
    1.9760    3.3669   -0.9661 H   0  0  0  0  0  0  0  0  0  0  0  0
   -0.0714    5.4308   -0.5658 H   0  0  0  0  0  0  0  0  0  0  0  0
    1.1347    5.3848    1.5669 H   0  0  0  0  0  0  0  0  0  0  0  0
    1.4569    6.8678    0.7009 H   0  0  0  0  0  0  0  0  0  0  0  0
    3.5064    6.4428    2.4984 H   0  0  0  0  0  0  0  0  0  0  0  0
    1.1386    7.7684   -1.3923 H   0  0  0  0  0  0  0  0  0  0  0  0
    3.0096    2.4566   -0.7822 H   0  0  0  0  0  0  0  0  0  0  0  0
    3.8775    1.2100    0.0815 H   0  0  0  0  0  0  0  0  0  0  0  0
    2.8983    3.7641    3.1355 H   0  0  0  0  0  0  0  0  0  0  0  0
    2.9306   -0.3892    3.7399 H   0  0  0  0  0  0  0  0  0  0  0  0
  1  2  1  0  0  0  0
  1 25  1  0  0  0  0
  1 26  1  0  0  0  0
  1 27  1  0  0  0  0
  2  3  2  0  0  0  0
  2  7  1  0  0  0  0
  3  4  1  0  0  0  0
  4  5  2  0  0  0  0
  4 28  1  0  0  0  0
  5  6  1  0  0  0  0
  5 19  1  0  0  0  0
  6  7  2  0  0  0  0
  6  9  1  0  0  0  0
  7  8  1  0  0  0  0
  8 29  1  0  0  0  0
  9 10  2  3  0  0  0
  9 30  1  0  0  0  0
 10 11  1  0  0  0  0
 10 31  1  0  0  0  0
 11 12  1  0  0  0  0
 11 16  1  0  0  0  0
 11 32  1  0  0  0  0
 12 13  1  0  0  0  0
 12 33  1  0  0  0  0
 12 34  1  0  0  0  0
 13 14  2  0  0  0  0
 13 15  1  0  0  0  0
 15 35  1  0  0  0  0
 16 17  2  0  0  0  0
 16 18  1  0  0  0  0
 18 36  1  0  0  0  0
 19 20  1  0  0  0  0
 19 37  1  0  0  0  0
 19 38  1  0  0  0  0
 20 21  1  0  0  0  0
 21 22  2  0  0  0  0
 21 23  1  0  0  0  0
 21 24  1  0  0  0  0
 23 39  1  0  0  0  0
 24 40  1  0  0  0  0
M  CHG  1  10   1
M  END
