
 OpenBabel10072620223D

 35 35  0  0  0  0  0  0  0  0999 V2000
    3.8081   -0.3961    0.0849 C   0  0  0  0  0  0  0  0  0  0  0  0
    2.3324   -0.1621   -0.0910 C   0  0  0  0  0  0  0  0  0  0  0  0
    1.7465    1.0967   -0.3267 C   0  0  0  0  0  0  0  0  0  0  0  0
    0.3714    1.1685   -0.6069 C   0  0  0  0  0  0  0  0  0  0  0  0
   -0.4243    0.0242   -0.5792 C   0  0  0  0  0  0  0  0  0  0  0  0
    0.1324   -1.2116   -0.2845 C   0  0  0  0  0  0  0  0  0  0  0  0
    1.5021   -1.3016   -0.0421 C   0  0  0  0  0  0  0  0  0  0  0  0
   -2.1087    0.1473   -0.9101 Cl  0  0  0  0  0  0  0  0  0  0  0  0
    2.4410    2.3275   -0.3767 N   0  0  0  0  0  0  0  0  0  0  0  0
    3.5036    2.7129    0.4128 C   0  0  0  0  0  0  0  0  0  0  0  0
    3.8757    2.0998    1.4091 O   0  0  0  0  0  0  0  0  0  0  0  0
    4.1111    3.9065    0.0042 N   0  0  0  0  0  0  0  0  0  0  0  0
    5.2706    4.3558    0.7729 C   0  0  0  0  0  0  0  0  0  0  0  0
    5.2366    5.8422    0.9704 C   0  0  0  0  0  0  0  0  0  0  0  0
    6.1542    6.6972    0.4983 C   0  0  0  0  0  0  0  0  0  0  0  0
    3.9414    4.4570   -1.3419 C   0  0  0  0  0  0  0  0  0  0  0  0
    2.8055    5.4433   -1.4302 C   0  0  0  0  0  0  0  0  0  0  0  0
    1.9681    5.8396   -0.4604 C   0  0  0  0  0  0  0  0  0  0  0  0
    4.4047    0.3292   -0.4752 H   0  0  0  0  0  0  0  0  0  0  0  0
    4.0903   -1.3800   -0.3086 H   0  0  0  0  0  0  0  0  0  0  0  0
    4.0762   -0.3706    1.1447 H   0  0  0  0  0  0  0  0  0  0  0  0
   -0.0959    2.1257   -0.8233 H   0  0  0  0  0  0  0  0  0  0  0  0
   -0.4835   -2.1062   -0.2541 H   0  0  0  0  0  0  0  0  0  0  0  0
    1.9331   -2.2797    0.1665 H   0  0  0  0  0  0  0  0  0  0  0  0
    1.9034    3.1183   -0.7021 H   0  0  0  0  0  0  0  0  0  0  0  0
    6.1698    4.0326    0.2352 H   0  0  0  0  0  0  0  0  0  0  0  0
    5.2985    3.8850    1.7613 H   0  0  0  0  0  0  0  0  0  0  0  0
    4.4093    6.2290    1.5608 H   0  0  0  0  0  0  0  0  0  0  0  0
    7.0039    6.3586   -0.0862 H   0  0  0  0  0  0  0  0  0  0  0  0
    6.0693    7.7622    0.6920 H   0  0  0  0  0  0  0  0  0  0  0  0
    3.7567    3.6400   -2.0486 H   0  0  0  0  0  0  0  0  0  0  0  0
    4.8716    4.9390   -1.6633 H   0  0  0  0  0  0  0  0  0  0  0  0
    2.6743    5.8840   -2.4176 H   0  0  0  0  0  0  0  0  0  0  0  0
    2.0385    5.4630    0.5555 H   0  0  0  0  0  0  0  0  0  0  0  0
    1.1951    6.5760   -0.6598 H   0  0  0  0  0  0  0  0  0  0  0  0
  1  2  1  0  0  0  0
  1 19  1  0  0  0  0
  1 20  1  0  0  0  0
  1 21  1  0  0  0  0
  2  3  2  0  0  0  0
  2  7  1  0  0  0  0
  3  4  1  0  0  0  0
  3  9  1  0  0  0  0
  4  5  2  0  0  0  0
  4 22  1  0  0  0  0
  5  6  1  0  0  0  0
  5  8  1  0  0  0  0
  6  7  2  0  0  0  0
  6 23  1  0  0  0  0
  7 24  1  0  0  0  0
  9 10  1  0  0  0  0
  9 25  1  0  0  0  0
 10 11  2  0  0  0  0
 10 12  1  0  0  0  0
 12 13  1  0  0  0  0
 12 16  1  0  0  0  0
 13 14  1  0  0  0  0
 13 26  1  0  0  0  0
 13 27  1  0  0  0  0
 14 15  2  0  0  0  0
 14 28  1  0  0  0  0
 15 29  1  0  0  0  0
 15 30  1  0  0  0  0
 16 17  1  0  0  0  0
 16 31  1  0  0  0  0
 16 32  1  0  0  0  0
 17 18  2  0  0  0  0
 17 33  1  0  0  0  0
 18 34  1  0  0  0  0
 18 35  1  0  0  0  0
M  END
