
 OpenBabel10072620103D

 38 39  0  0  0  0  0  0  0  0999 V2000
    2.5619   -0.2486    0.7758 C   0  0  0  0  0  0  0  0  0  0  0  0
    1.0656   -0.1423    0.7196 C   0  0  0  0  0  0  0  0  0  0  0  0
    0.3210   -0.8790   -0.2105 C   0  0  0  0  0  0  0  0  0  0  0  0
   -1.0754   -0.7677   -0.2502 C   0  0  0  0  0  0  0  0  0  0  0  0
   -1.7392    0.1192    0.6265 C   0  0  0  0  0  0  0  0  0  0  0  0
   -0.9946    0.8153    1.5778 C   0  0  0  0  0  0  0  0  0  0  0  0
    0.3965    0.6872    1.6230 C   0  0  0  0  0  0  0  0  0  0  0  0
   -3.1521    0.1890    0.5208 N   0  0  0  0  0  0  0  0  0  0  0  0
   -4.0639    1.1637    0.9043 C   0  0  0  0  0  0  0  0  0  0  0  0
   -3.7267    2.7443    1.3321 S   0  0  0  0  0  0  0  0  0  0  0  0
   -5.3495    0.6456    0.8112 N   0  0  0  0  0  0  0  0  0  0  0  0
   -6.6099    1.3331    1.0625 C   0  0  0  0  0  0  0  0  0  0  0  0
   -7.2998    0.7757    2.2830 C   0  0  0  0  0  0  0  0  0  0  0  0
   -6.7713    1.0036    3.5631 C   0  0  0  0  0  0  0  0  0  0  0  0
   -7.4113    0.4959    4.6959 C   0  0  0  0  0  0  0  0  0  0  0  0
   -8.5842   -0.2415    4.5562 C   0  0  0  0  0  0  0  0  0  0  0  0
   -9.1221   -0.4767    3.2926 C   0  0  0  0  0  0  0  0  0  0  0  0
   -8.4808    0.0286    2.1586 C   0  0  0  0  0  0  0  0  0  0  0  0
   -9.3786   -0.8602    5.9517 Cl  0  0  0  0  0  0  0  0  0  0  0  0
   -1.8929   -1.4502   -1.1198 O   0  0  0  0  0  0  0  0  0  0  0  0
   -1.3125   -2.5212   -1.8425 C   0  0  0  0  0  0  0  0  0  0  0  0
   -2.3292   -3.1812   -2.4541 F   0  0  0  0  0  0  0  0  0  0  0  0
   -0.5254   -2.0222   -2.8257 F   0  0  0  0  0  0  0  0  0  0  0  0
    2.9604   -0.7883   -0.0891 H   0  0  0  0  0  0  0  0  0  0  0  0
    2.8696   -0.7789    1.6824 H   0  0  0  0  0  0  0  0  0  0  0  0
    3.0116    0.7496    0.7743 H   0  0  0  0  0  0  0  0  0  0  0  0
    0.8600   -1.5141   -0.9070 H   0  0  0  0  0  0  0  0  0  0  0  0
   -1.4666    1.4472    2.3217 H   0  0  0  0  0  0  0  0  0  0  0  0
    0.9554    1.2503    2.3684 H   0  0  0  0  0  0  0  0  0  0  0  0
   -3.5222   -0.4770   -0.1492 H   0  0  0  0  0  0  0  0  0  0  0  0
   -5.4212   -0.3608    0.7629 H   0  0  0  0  0  0  0  0  0  0  0  0
   -7.2299    1.1714    0.1731 H   0  0  0  0  0  0  0  0  0  0  0  0
   -6.4846    2.4133    1.1687 H   0  0  0  0  0  0  0  0  0  0  0  0
   -5.8565    1.5817    3.6837 H   0  0  0  0  0  0  0  0  0  0  0  0
   -6.9904    0.6827    5.6801 H   0  0  0  0  0  0  0  0  0  0  0  0
  -10.0398   -1.0481    3.1837 H   0  0  0  0  0  0  0  0  0  0  0  0
   -8.9144   -0.1609    1.1785 H   0  0  0  0  0  0  0  0  0  0  0  0
   -0.7626   -3.2311   -1.2159 H   0  0  0  0  0  0  0  0  0  0  0  0
  1  2  1  0  0  0  0
  1 24  1  0  0  0  0
  1 25  1  0  0  0  0
  1 26  1  0  0  0  0
  2  3  2  0  0  0  0
  2  7  1  0  0  0  0
  3  4  1  0  0  0  0
  3 27  1  0  0  0  0
  4  5  2  0  0  0  0
  4 20  1  0  0  0  0
  5  6  1  0  0  0  0
  5  8  1  0  0  0  0
  6  7  2  0  0  0  0
  6 28  1  0  0  0  0
  7 29  1  0  0  0  0
  8  9  1  0  0  0  0
  8 30  1  0  0  0  0
  9 10  2  0  0  0  0
  9 11  1  0  0  0  0
 11 12  1  0  0  0  0
 11 31  1  0  0  0  0
 12 13  1  0  0  0  0
 12 32  1  0  0  0  0
 12 33  1  0  0  0  0
 13 14  2  0  0  0  0
 13 18  1  0  0  0  0
 14 15  1  0  0  0  0
 14 34  1  0  0  0  0
 15 16  2  0  0  0  0
 15 35  1  0  0  0  0
 16 17  1  0  0  0  0
 16 19  1  0  0  0  0
 17 18  2  0  0  0  0
 17 36  1  0  0  0  0
 18 37  1  0  0  0  0
 20 21  1  0  0  0  0
 21 22  1  0  0  0  0
 21 23  1  0  0  0  0
 21 38  1  0  0  0  0
M  END
