
 OpenBabel10072620023D

115116  0  0  0  0  0  0  0  0999 V2000
    9.8672   -4.6795    7.6667 C   0  0  0  0  0  0  0  0  0  0  0  0
    9.7207   -3.8926    6.3734 C   0  0  0  0  0  0  0  0  0  0  0  0
   10.7127   -4.3757    5.3169 C   0  0  0  0  0  0  0  0  0  0  0  0
   10.5813   -3.5899    4.0094 C   0  0  0  0  0  0  0  0  0  0  0  0
   11.5895   -4.0933    2.9755 C   0  0  0  0  0  0  0  0  0  0  0  0
   11.4979   -3.3302    1.6521 C   0  0  0  0  0  0  0  0  0  0  0  0
   12.5197   -3.8766    0.6534 C   0  0  0  0  0  0  0  0  0  0  0  0
   12.4702   -3.1457   -0.6894 C   0  0  0  0  0  0  0  0  0  0  0  0
   13.4763   -3.7585   -1.6653 C   0  0  0  0  0  0  0  0  0  0  0  0
   13.4861   -3.0471   -3.0204 C   0  0  0  0  0  0  0  0  0  0  0  0
   14.4545   -3.7443   -3.9791 C   0  0  0  0  0  0  0  0  0  0  0  0
   14.5545   -3.0389   -5.3320 C   0  0  0  0  0  0  0  0  0  0  0  0
   15.4869   -3.8074   -6.2656 C   0  0  0  0  0  0  0  0  0  0  0  0
   15.6753   -3.1204   -7.5279 N   0  0  0  0  0  0  0  0  0  0  0  0
   16.6249   -3.6044   -8.4142 C   0  0  0  0  0  0  0  0  0  0  0  0
   17.3519   -4.5522   -8.1497 O   0  0  0  0  0  0  0  0  0  0  0  0
   16.6257   -2.8597   -9.5724 N   0  0  0  0  0  0  0  0  0  0  0  0
   17.3780   -3.0911  -10.7405 C   0  0  0  0  0  0  0  0  0  0  0  0
   18.1070   -4.2557  -10.9817 C   0  0  0  0  0  0  0  0  0  0  0  0
   18.8265   -4.4108  -12.1743 C   0  0  0  0  0  0  0  0  0  0  0  0
   18.8221   -3.4112  -13.1574 C   0  0  0  0  0  0  0  0  0  0  0  0
   18.0922   -2.2421  -12.9036 C   0  0  0  0  0  0  0  0  0  0  0  0
   17.3712   -2.0892  -11.7148 C   0  0  0  0  0  0  0  0  0  0  0  0
   19.6569   -3.5974  -14.4097 C   0  0  0  0  0  0  0  0  0  0  0  0
   19.1691   -2.8537  -15.6338 C   0  0  0  0  0  0  0  0  0  0  0  0
   19.7292   -1.6183  -15.9802 C   0  0  0  0  0  0  0  0  0  0  0  0
   19.2305   -0.8860  -17.0628 C   0  0  0  0  0  0  0  0  0  0  0  0
   18.1687   -1.3764  -17.8242 C   0  0  0  0  0  0  0  0  0  0  0  0
   17.6281   -2.6262  -17.4975 C   0  0  0  0  0  0  0  0  0  0  0  0
   18.1154   -3.3543  -16.4063 C   0  0  0  0  0  0  0  0  0  0  0  0
   17.5803   -0.6759  -18.8991 N   0  0  0  0  0  0  0  0  0  0  0  0
   17.8705    0.6045  -19.3197 C   0  0  0  0  0  0  0  0  0  0  0  0
   18.7472    1.3373  -18.8828 O   0  0  0  0  0  0  0  0  0  0  0  0
   17.0170    1.0029  -20.3372 N   0  0  0  0  0  0  0  0  0  0  0  0
   17.0602    2.3868  -20.7719 C   0  0  0  0  0  0  0  0  0  0  0  0
   16.4185    2.5791  -22.1418 C   0  0  0  0  0  0  0  0  0  0  0  0
   16.4333    4.0572  -22.5350 C   0  0  0  0  0  0  0  0  0  0  0  0
   15.9351    4.2830  -23.9630 C   0  0  0  0  0  0  0  0  0  0  0  0
   16.0027    5.7677  -24.3283 C   0  0  0  0  0  0  0  0  0  0  0  0
   15.6015    6.0139  -25.7829 C   0  0  0  0  0  0  0  0  0  0  0  0
   15.7265    7.4954  -26.1408 C   0  0  0  0  0  0  0  0  0  0  0  0
   15.3609    7.7567  -27.6023 C   0  0  0  0  0  0  0  0  0  0  0  0
   15.4859    9.2442  -27.9357 C   0  0  0  0  0  0  0  0  0  0  0  0
   15.1062    9.5297  -29.3885 C   0  0  0  0  0  0  0  0  0  0  0  0
   15.2086   11.0236  -29.7022 C   0  0  0  0  0  0  0  0  0  0  0  0
   14.8151   11.3149  -31.1496 C   0  0  0  0  0  0  0  0  0  0  0  0
   14.9072   12.7991  -31.4658 C   0  0  0  0  0  0  0  0  0  0  0  0
    9.1511   -4.3219    8.4127 H   0  0  0  0  0  0  0  0  0  0  0  0
   10.8742   -4.5688    8.0817 H   0  0  0  0  0  0  0  0  0  0  0  0
    9.6807   -5.7453    7.5001 H   0  0  0  0  0  0  0  0  0  0  0  0
    9.8826   -2.8281    6.5783 H   0  0  0  0  0  0  0  0  0  0  0  0
    8.6960   -4.0006    5.9998 H   0  0  0  0  0  0  0  0  0  0  0  0
   10.5473   -5.4423    5.1206 H   0  0  0  0  0  0  0  0  0  0  0  0
   11.7350   -4.2746    5.7019 H   0  0  0  0  0  0  0  0  0  0  0  0
   10.7497   -2.5233    4.2006 H   0  0  0  0  0  0  0  0  0  0  0  0
    9.5631   -3.6936    3.6153 H   0  0  0  0  0  0  0  0  0  0  0  0
   11.4187   -5.1614    2.7919 H   0  0  0  0  0  0  0  0  0  0  0  0
   12.6042   -3.9960    3.3809 H   0  0  0  0  0  0  0  0  0  0  0  0
   11.6798   -2.2627    1.8252 H   0  0  0  0  0  0  0  0  0  0  0  0
   10.4872   -3.4265    1.2377 H   0  0  0  0  0  0  0  0  0  0  0  0
   12.3317   -4.9455    0.4930 H   0  0  0  0  0  0  0  0  0  0  0  0
   13.5275   -3.7893    1.0786 H   0  0  0  0  0  0  0  0  0  0  0  0
   12.6930   -2.0824   -0.5421 H   0  0  0  0  0  0  0  0  0  0  0  0
   11.4600   -3.2130   -1.1099 H   0  0  0  0  0  0  0  0  0  0  0  0
   13.2368   -4.8190   -1.8118 H   0  0  0  0  0  0  0  0  0  0  0  0
   14.4813   -3.7159   -1.2270 H   0  0  0  0  0  0  0  0  0  0  0  0
   13.7848   -2.0008   -2.8848 H   0  0  0  0  0  0  0  0  0  0  0  0
   12.4768   -3.0468   -3.4490 H   0  0  0  0  0  0  0  0  0  0  0  0
   14.1304   -4.7815   -4.1310 H   0  0  0  0  0  0  0  0  0  0  0  0
   15.4512   -3.7833   -3.5223 H   0  0  0  0  0  0  0  0  0  0  0  0
   14.9294   -2.0177   -5.1910 H   0  0  0  0  0  0  0  0  0  0  0  0
   13.5615   -2.9515   -5.7899 H   0  0  0  0  0  0  0  0  0  0  0  0
   15.0799   -4.8016   -6.4858 H   0  0  0  0  0  0  0  0  0  0  0  0
   16.4685   -3.9448   -5.7969 H   0  0  0  0  0  0  0  0  0  0  0  0
   14.8388   -2.7729   -7.9732 H   0  0  0  0  0  0  0  0  0  0  0  0
   16.1665   -1.9643   -9.5027 H   0  0  0  0  0  0  0  0  0  0  0  0
   18.1369   -5.0662  -10.2596 H   0  0  0  0  0  0  0  0  0  0  0  0
   19.3951   -5.3270  -12.3235 H   0  0  0  0  0  0  0  0  0  0  0  0
   18.0678   -1.4324  -13.6294 H   0  0  0  0  0  0  0  0  0  0  0  0
   16.8144   -1.1680  -11.5629 H   0  0  0  0  0  0  0  0  0  0  0  0
   19.7019   -4.6656  -14.6614 H   0  0  0  0  0  0  0  0  0  0  0  0
   20.6891   -3.2979  -14.1846 H   0  0  0  0  0  0  0  0  0  0  0  0
   20.5450   -1.2011  -15.3931 H   0  0  0  0  0  0  0  0  0  0  0  0
   19.6987    0.0684  -17.2824 H   0  0  0  0  0  0  0  0  0  0  0  0
   16.8002   -3.0404  -18.0661 H   0  0  0  0  0  0  0  0  0  0  0  0
   17.6536   -4.3054  -16.1503 H   0  0  0  0  0  0  0  0  0  0  0  0
   16.8682   -1.1639  -19.4184 H   0  0  0  0  0  0  0  0  0  0  0  0
   16.1064    0.5697  -20.3316 H   0  0  0  0  0  0  0  0  0  0  0  0
   18.1027    2.7249  -20.7971 H   0  0  0  0  0  0  0  0  0  0  0  0
   16.5381    2.9800  -20.0116 H   0  0  0  0  0  0  0  0  0  0  0  0
   15.3880    2.2039  -22.1304 H   0  0  0  0  0  0  0  0  0  0  0  0
   16.9654    1.9857  -22.8846 H   0  0  0  0  0  0  0  0  0  0  0  0
   17.4552    4.4463  -22.4462 H   0  0  0  0  0  0  0  0  0  0  0  0
   15.8115    4.6269  -21.8329 H   0  0  0  0  0  0  0  0  0  0  0  0
   14.9037    3.9236  -24.0611 H   0  0  0  0  0  0  0  0  0  0  0  0
   16.5508    3.7040  -24.6623 H   0  0  0  0  0  0  0  0  0  0  0  0
   17.0218    6.1401  -24.1651 H   0  0  0  0  0  0  0  0  0  0  0  0
   15.3425    6.3380  -23.6633 H   0  0  0  0  0  0  0  0  0  0  0  0
   14.5697    5.6791  -25.9433 H   0  0  0  0  0  0  0  0  0  0  0  0
   16.2423    5.4221  -26.4473 H   0  0  0  0  0  0  0  0  0  0  0  0
   16.7550    7.8309  -25.9593 H   0  0  0  0  0  0  0  0  0  0  0  0
   15.0747    8.0871  -25.4864 H   0  0  0  0  0  0  0  0  0  0  0  0
   14.3348    7.4197  -27.7926 H   0  0  0  0  0  0  0  0  0  0  0  0
   16.0205    7.1746  -28.2575 H   0  0  0  0  0  0  0  0  0  0  0  0
   16.5154    9.5761  -27.7526 H   0  0  0  0  0  0  0  0  0  0  0  0
   14.8366    9.8233  -27.2678 H   0  0  0  0  0  0  0  0  0  0  0  0
   14.0819    9.1848  -29.5748 H   0  0  0  0  0  0  0  0  0  0  0  0
   15.7654    8.9655  -30.0594 H   0  0  0  0  0  0  0  0  0  0  0  0
   16.2347   11.3673  -29.5228 H   0  0  0  0  0  0  0  0  0  0  0  0
   14.5564   11.5871  -29.0235 H   0  0  0  0  0  0  0  0  0  0  0  0
   13.7902   10.9716  -31.3328 H   0  0  0  0  0  0  0  0  0  0  0  0
   15.4702   10.7604  -31.8315 H   0  0  0  0  0  0  0  0  0  0  0  0
   14.2393   13.3800  -30.8215 H   0  0  0  0  0  0  0  0  0  0  0  0
   14.6202   12.9825  -32.5059 H   0  0  0  0  0  0  0  0  0  0  0  0
   15.9282   13.1679  -31.3248 H   0  0  0  0  0  0  0  0  0  0  0  0
  1  2  1  0  0  0  0
  1 48  1  0  0  0  0
  1 49  1  0  0  0  0
  1 50  1  0  0  0  0
  2  3  1  0  0  0  0
  2 51  1  0  0  0  0
  2 52  1  0  0  0  0
  3  4  1  0  0  0  0
  3 53  1  0  0  0  0
  3 54  1  0  0  0  0
  4  5  1  0  0  0  0
  4 55  1  0  0  0  0
  4 56  1  0  0  0  0
  5  6  1  0  0  0  0
  5 57  1  0  0  0  0
  5 58  1  0  0  0  0
  6  7  1  0  0  0  0
  6 59  1  0  0  0  0
  6 60  1  0  0  0  0
  7  8  1  0  0  0  0
  7 61  1  0  0  0  0
  7 62  1  0  0  0  0
  8  9  1  0  0  0  0
  8 63  1  0  0  0  0
  8 64  1  0  0  0  0
  9 10  1  0  0  0  0
  9 65  1  0  0  0  0
  9 66  1  0  0  0  0
 10 11  1  0  0  0  0
 10 67  1  0  0  0  0
 10 68  1  0  0  0  0
 11 12  1  0  0  0  0
 11 69  1  0  0  0  0
 11 70  1  0  0  0  0
 12 13  1  0  0  0  0
 12 71  1  0  0  0  0
 12 72  1  0  0  0  0
 13 14  1  0  0  0  0
 13 73  1  0  0  0  0
 13 74  1  0  0  0  0
 14 15  1  0  0  0  0
 14 75  1  0  0  0  0
 15 16  2  0  0  0  0
 15 17  1  0  0  0  0
 17 18  1  0  0  0  0
 17 76  1  0  0  0  0
 18 19  2  0  0  0  0
 18 23  1  0  0  0  0
 19 20  1  0  0  0  0
 19 77  1  0  0  0  0
 20 21  2  0  0  0  0
 20 78  1  0  0  0  0
 21 22  1  0  0  0  0
 21 24  1  0  0  0  0
 22 23  2  0  0  0  0
 22 79  1  0  0  0  0
 23 80  1  0  0  0  0
 24 25  1  0  0  0  0
 24 81  1  0  0  0  0
 24 82  1  0  0  0  0
 25 26  2  0  0  0  0
 25 30  1  0  0  0  0
 26 27  1  0  0  0  0
 26 83  1  0  0  0  0
 27 28  2  0  0  0  0
 27 84  1  0  0  0  0
 28 29  1  0  0  0  0
 28 31  1  0  0  0  0
 29 30  2  0  0  0  0
 29 85  1  0  0  0  0
 30 86  1  0  0  0  0
 31 32  1  0  0  0  0
 31 87  1  0  0  0  0
 32 33  2  0  0  0  0
 32 34  1  0  0  0  0
 34 35  1  0  0  0  0
 34 88  1  0  0  0  0
 35 36  1  0  0  0  0
 35 89  1  0  0  0  0
 35 90  1  0  0  0  0
 36 37  1  0  0  0  0
 36 91  1  0  0  0  0
 36 92  1  0  0  0  0
 37 38  1  0  0  0  0
 37 93  1  0  0  0  0
 37 94  1  0  0  0  0
 38 39  1  0  0  0  0
 38 95  1  0  0  0  0
 38 96  1  0  0  0  0
 39 40  1  0  0  0  0
 39 97  1  0  0  0  0
 39 98  1  0  0  0  0
 40 41  1  0  0  0  0
 40 99  1  0  0  0  0
 40100  1  0  0  0  0
 41 42  1  0  0  0  0
 41101  1  0  0  0  0
 41102  1  0  0  0  0
 42 43  1  0  0  0  0
 42103  1  0  0  0  0
 42104  1  0  0  0  0
 43 44  1  0  0  0  0
 43105  1  0  0  0  0
 43106  1  0  0  0  0
 44 45  1  0  0  0  0
 44107  1  0  0  0  0
 44108  1  0  0  0  0
 45 46  1  0  0  0  0
 45109  1  0  0  0  0
 45110  1  0  0  0  0
 46 47  1  0  0  0  0
 46111  1  0  0  0  0
 46112  1  0  0  0  0
 47113  1  0  0  0  0
 47114  1  0  0  0  0
 47115  1  0  0  0  0
M  END
