
 OpenBabel10072619523D

 36 37  0  0  0  0  0  0  0  0999 V2000
    0.8608    2.1270   -0.5366 C   0  0  0  0  0  0  0  0  0  0  0  0
   -0.0927    0.9852   -0.3370 C   0  0  0  0  0  0  0  0  0  0  0  0
    0.3308   -0.3489   -0.3422 C   0  0  0  0  0  0  0  0  0  0  0  0
   -0.5852   -1.3912   -0.1557 C   0  0  0  0  0  0  0  0  0  0  0  0
   -1.9548   -1.1380    0.0168 C   0  0  0  0  0  0  0  0  0  0  0  0
   -2.3646    0.1980    0.0451 C   0  0  0  0  0  0  0  0  0  0  0  0
   -1.4525    1.2448   -0.1344 C   0  0  0  0  0  0  0  0  0  0  0  0
   -2.8175   -2.2288    0.2414 N   0  0  0  0  0  0  0  0  0  0  0  0
   -4.1880   -2.2720    0.1847 C   0  0  0  0  0  0  0  0  0  0  0  0
   -4.9518   -1.2996   -0.1785 N   0  0  0  0  0  0  0  0  0  0  0  0
   -6.3375   -1.3934   -0.2206 C   0  0  0  0  0  0  0  0  0  0  0  0
   -6.9680   -2.2955    0.5574 N   0  0  0  0  0  0  0  0  0  0  0  0
   -8.3165   -2.2775    0.5222 C   0  0  0  0  0  0  0  0  0  0  0  0
   -9.0272   -1.3920   -0.2649 C   0  0  0  0  0  0  0  0  0  0  0  0
   -8.2880   -0.5079   -1.0260 C   0  0  0  0  0  0  0  0  0  0  0  0
   -6.9425   -0.4927   -1.0060 N   0  0  0  0  0  0  0  0  0  0  0  0
   -8.9717    0.5021   -1.8975 C   0  0  0  0  0  0  0  0  0  0  0  0
   -9.0403   -3.2569    1.3967 C   0  0  0  0  0  0  0  0  0  0  0  0
   -4.5827   -3.5293    0.5617 N   0  0  0  0  0  0  0  0  0  0  0  0
    1.9925   -0.7671   -0.5721 Cl  0  0  0  0  0  0  0  0  0  0  0  0
    1.6287    2.1239    0.2436 H   0  0  0  0  0  0  0  0  0  0  0  0
    0.3461    3.0926   -0.4867 H   0  0  0  0  0  0  0  0  0  0  0  0
    1.3356    2.0581   -1.5206 H   0  0  0  0  0  0  0  0  0  0  0  0
   -0.2201   -2.4152   -0.1527 H   0  0  0  0  0  0  0  0  0  0  0  0
   -3.4064    0.4601    0.2121 H   0  0  0  0  0  0  0  0  0  0  0  0
   -1.8248    2.2674   -0.1111 H   0  0  0  0  0  0  0  0  0  0  0  0
   -2.3917   -3.1297    0.0747 H   0  0  0  0  0  0  0  0  0  0  0  0
  -10.1106   -1.3860   -0.2789 H   0  0  0  0  0  0  0  0  0  0  0  0
   -9.5345    1.2111   -1.2815 H   0  0  0  0  0  0  0  0  0  0  0  0
   -9.6554    0.0034   -2.5924 H   0  0  0  0  0  0  0  0  0  0  0  0
   -8.2397    1.0654   -2.4860 H   0  0  0  0  0  0  0  0  0  0  0  0
   -8.3327   -3.8787    1.9550 H   0  0  0  0  0  0  0  0  0  0  0  0
   -9.6687   -3.9160    0.7899 H   0  0  0  0  0  0  0  0  0  0  0  0
   -9.6676   -2.7243    2.1184 H   0  0  0  0  0  0  0  0  0  0  0  0
   -4.1429   -3.8158    1.4290 H   0  0  0  0  0  0  0  0  0  0  0  0
   -5.5974   -3.5504    0.6885 H   0  0  0  0  0  0  0  0  0  0  0  0
  1  2  1  0  0  0  0
  1 21  1  0  0  0  0
  1 22  1  0  0  0  0
  1 23  1  0  0  0  0
  2  3  2  0  0  0  0
  2  7  1  0  0  0  0
  3  4  1  0  0  0  0
  3 20  1  0  0  0  0
  4  5  2  0  0  0  0
  4 24  1  0  0  0  0
  5  6  1  0  0  0  0
  5  8  1  0  0  0  0
  6  7  2  0  0  0  0
  6 25  1  0  0  0  0
  7 26  1  0  0  0  0
  8  9  1  0  0  0  0
  8 27  1  0  0  0  0
  9 10  2  0  0  0  0
  9 19  1  0  0  0  0
 10 11  1  0  0  0  0
 11 12  2  0  0  0  0
 11 16  1  0  0  0  0
 12 13  1  0  0  0  0
 13 14  2  0  0  0  0
 13 18  1  0  0  0  0
 14 15  1  0  0  0  0
 14 28  1  0  0  0  0
 15 16  2  0  0  0  0
 15 17  1  0  0  0  0
 17 29  1  0  0  0  0
 17 30  1  0  0  0  0
 17 31  1  0  0  0  0
 18 32  1  0  0  0  0
 18 33  1  0  0  0  0
 18 34  1  0  0  0  0
 19 35  1  0  0  0  0
 19 36  1  0  0  0  0
M  END
