
 OpenBabel10072619433D

 45 46  0  0  0  0  0  0  0  0999 V2000
    0.3784   -4.2826   -3.6850 C   0  0  0  0  0  0  0  0  0  0  0  0
   -0.0909   -5.6655   -3.4589 N   0  3  0  0  0  0  0  0  0  0  0  0
    0.7774   -6.6844   -3.6776 C   0  0  0  0  0  0  0  0  0  0  0  0
    0.3936   -8.0066   -3.5056 C   0  0  0  0  0  0  0  0  0  0  0  0
   -0.9016   -8.2920   -3.1084 C   0  0  0  0  0  0  0  0  0  0  0  0
   -1.7869   -7.2439   -2.8864 C   0  0  0  0  0  0  0  0  0  0  0  0
   -1.3689   -5.9158   -3.0545 C   0  0  0  0  0  0  0  0  0  0  0  0
   -2.5349   -4.5918   -2.7563 S   0  0  0  0  0  0  0  0  0  0  0  0
   -2.8585   -4.8421   -0.9723 C   0  0  0  0  0  0  0  0  0  0  0  0
   -3.6586   -3.6887   -0.3579 C   0  0  0  0  0  0  0  0  0  0  0  0
   -5.1051   -3.5420   -0.8512 C   0  0  0  0  0  0  0  0  0  0  0  0
   -6.0497   -4.6970   -0.4857 C   0  0  0  0  0  0  0  0  0  0  0  0
   -6.2427   -4.9755    1.0090 C   0  0  0  0  0  0  0  0  0  0  0  0
   -6.9637   -3.5481    1.8997 S   0  0  0  0  0  0  0  0  0  0  0  0
   -7.4824   -4.3234    3.4263 C   0  0  0  0  0  0  0  0  0  0  0  0
   -6.5650   -5.0911    4.1606 C   0  0  0  0  0  0  0  0  0  0  0  0
   -6.9485   -5.7074    5.3442 C   0  0  0  0  0  0  0  0  0  0  0  0
   -8.2445   -5.5402    5.7994 C   0  0  0  0  0  0  0  0  0  0  0  0
   -9.1267   -4.7552    5.0693 C   0  0  0  0  0  0  0  0  0  0  0  0
   -8.7472   -4.1609    3.9129 N   0  3  0  0  0  0  0  0  0  0  0  0
   -9.7306   -3.3205    3.1974 C   0  0  0  0  0  0  0  0  0  0  0  0
    1.4260   -4.2873   -3.9980 H   0  0  0  0  0  0  0  0  0  0  0  0
    0.2931   -3.7360   -2.7426 H   0  0  0  0  0  0  0  0  0  0  0  0
   -0.2300   -3.8353   -4.4756 H   0  0  0  0  0  0  0  0  0  0  0  0
    1.7868   -6.4336   -3.9949 H   0  0  0  0  0  0  0  0  0  0  0  0
    1.1029   -8.8143   -3.6847 H   0  0  0  0  0  0  0  0  0  0  0  0
   -1.2250   -9.3238   -2.9799 H   0  0  0  0  0  0  0  0  0  0  0  0
   -2.8101   -7.4726   -2.5940 H   0  0  0  0  0  0  0  0  0  0  0  0
   -1.8918   -4.9065   -0.4605 H   0  0  0  0  0  0  0  0  0  0  0  0
   -3.3786   -5.7923   -0.8204 H   0  0  0  0  0  0  0  0  0  0  0  0
   -3.1291   -2.7441   -0.5412 H   0  0  0  0  0  0  0  0  0  0  0  0
   -3.6623   -3.8140    0.7314 H   0  0  0  0  0  0  0  0  0  0  0  0
   -5.1145   -3.4247   -1.9410 H   0  0  0  0  0  0  0  0  0  0  0  0
   -5.5088   -2.6013   -0.4584 H   0  0  0  0  0  0  0  0  0  0  0  0
   -5.6885   -5.6175   -0.9603 H   0  0  0  0  0  0  0  0  0  0  0  0
   -7.0303   -4.4967   -0.9381 H   0  0  0  0  0  0  0  0  0  0  0  0
   -5.2886   -5.2506    1.4682 H   0  0  0  0  0  0  0  0  0  0  0  0
   -6.9190   -5.8308    1.1182 H   0  0  0  0  0  0  0  0  0  0  0  0
   -5.5368   -5.2069    3.8239 H   0  0  0  0  0  0  0  0  0  0  0  0
   -6.2374   -6.3082    5.9107 H   0  0  0  0  0  0  0  0  0  0  0  0
   -8.5647   -6.0095    6.7281 H   0  0  0  0  0  0  0  0  0  0  0  0
  -10.1475   -4.5980    5.4108 H   0  0  0  0  0  0  0  0  0  0  0  0
  -10.6798   -3.3094    3.7393 H   0  0  0  0  0  0  0  0  0  0  0  0
   -9.8924   -3.7484    2.2049 H   0  0  0  0  0  0  0  0  0  0  0  0
   -9.3385   -2.3016    3.1449 H   0  0  0  0  0  0  0  0  0  0  0  0
  1  2  1  0  0  0  0
  1 22  1  0  0  0  0
  1 23  1  0  0  0  0
  1 24  1  0  0  0  0
  2  3  2  0  0  0  0
  2  7  1  0  0  0  0
  3  4  1  0  0  0  0
  3 25  1  0  0  0  0
  4  5  2  0  0  0  0
  4 26  1  0  0  0  0
  5  6  1  0  0  0  0
  5 27  1  0  0  0  0
  6  7  2  0  0  0  0
  6 28  1  0  0  0  0
  7  8  1  0  0  0  0
  8  9  1  0  0  0  0
  9 10  1  0  0  0  0
  9 29  1  0  0  0  0
  9 30  1  0  0  0  0
 10 11  1  0  0  0  0
 10 31  1  0  0  0  0
 10 32  1  0  0  0  0
 11 12  1  0  0  0  0
 11 33  1  0  0  0  0
 11 34  1  0  0  0  0
 12 13  1  0  0  0  0
 12 35  1  0  0  0  0
 12 36  1  0  0  0  0
 13 14  1  0  0  0  0
 13 37  1  0  0  0  0
 13 38  1  0  0  0  0
 14 15  1  0  0  0  0
 15 16  2  0  0  0  0
 15 20  1  0  0  0  0
 16 17  1  0  0  0  0
 16 39  1  0  0  0  0
 17 18  2  0  0  0  0
 17 40  1  0  0  0  0
 18 19  1  0  0  0  0
 18 41  1  0  0  0  0
 19 20  2  0  0  0  0
 19 42  1  0  0  0  0
 20 21  1  0  0  0  0
 21 43  1  0  0  0  0
 21 44  1  0  0  0  0
 21 45  1  0  0  0  0
M  CHG  2   2   1  20   1
M  END
