
 OpenBabel10072620023D

 53 54  0  0  0  0  0  0  0  0999 V2000
    1.0600    1.0410    0.0169 C   0  0  0  0  0  0  0  0  0  0  0  0
    2.3735    0.2785   -0.1204 C   0  0  0  0  0  0  0  0  0  0  0  0
    2.1137   -1.1926   -0.4431 C   0  0  0  0  0  0  0  0  0  0  0  0
    3.1984    0.8869   -1.1595 N   0  0  0  0  0  0  0  0  0  0  0  0
    4.5740    0.7338   -1.1429 C   0  0  0  0  0  0  0  0  0  0  0  0
    5.1597    0.1968   -0.2120 O   0  0  0  0  0  0  0  0  0  0  0  0
    5.1436    1.2578   -2.2841 N   0  0  0  0  0  0  0  0  0  0  0  0
    6.5035    1.2317   -2.6580 C   0  0  0  0  0  0  0  0  0  0  0  0
    7.5208    0.6869   -1.8714 C   0  0  0  0  0  0  0  0  0  0  0  0
    8.8456    0.6761   -2.3264 C   0  0  0  0  0  0  0  0  0  0  0  0
    9.1618    1.1897   -3.5849 C   0  0  0  0  0  0  0  0  0  0  0  0
    8.1589    1.7652   -4.3624 C   0  0  0  0  0  0  0  0  0  0  0  0
    6.8377    1.7851   -3.9018 C   0  0  0  0  0  0  0  0  0  0  0  0
   10.4400    1.2260   -4.0985 O   0  0  0  0  0  0  0  0  0  0  0  0
   11.2744    0.1738   -3.8026 C   0  0  0  0  0  0  0  0  0  0  0  0
   10.9223   -1.1501   -4.0669 C   0  0  0  0  0  0  0  0  0  0  0  0
   11.8084   -2.1848   -3.7528 C   0  0  0  0  0  0  0  0  0  0  0  0
   13.0543   -1.9002   -3.1904 C   0  0  0  0  0  0  0  0  0  0  0  0
   13.4153   -0.5629   -2.9730 C   0  0  0  0  0  0  0  0  0  0  0  0
   12.5303    0.4730   -3.2820 C   0  0  0  0  0  0  0  0  0  0  0  0
   13.9919   -2.8890   -2.8333 N   0  0  0  0  0  0  0  0  0  0  0  0
   13.7705   -4.2442   -2.7128 C   0  0  0  0  0  0  0  0  0  0  0  0
   12.6986   -4.8254   -2.8273 O   0  0  0  0  0  0  0  0  0  0  0  0
   14.9436   -4.8964   -2.3785 N   0  0  0  0  0  0  0  0  0  0  0  0
   14.9597   -6.3343   -2.1388 C   0  0  0  0  0  0  0  0  0  0  0  0
   15.0382   -7.1117   -3.4507 C   0  0  0  0  0  0  0  0  0  0  0  0
   16.1297   -6.6911   -1.2270 C   0  0  0  0  0  0  0  0  0  0  0  0
    0.4187    0.5889    0.7808 H   0  0  0  0  0  0  0  0  0  0  0  0
    0.5076    1.0544   -0.9287 H   0  0  0  0  0  0  0  0  0  0  0  0
    1.2447    2.0813    0.3056 H   0  0  0  0  0  0  0  0  0  0  0  0
    2.9122    0.3359    0.8332 H   0  0  0  0  0  0  0  0  0  0  0  0
    1.6246   -1.3014   -1.4178 H   0  0  0  0  0  0  0  0  0  0  0  0
    1.4731   -1.6563    0.3140 H   0  0  0  0  0  0  0  0  0  0  0  0
    3.0503   -1.7596   -0.4808 H   0  0  0  0  0  0  0  0  0  0  0  0
    2.7691    0.9813   -2.0671 H   0  0  0  0  0  0  0  0  0  0  0  0
    4.5172    1.7374   -2.9107 H   0  0  0  0  0  0  0  0  0  0  0  0
    7.3203    0.2740   -0.8872 H   0  0  0  0  0  0  0  0  0  0  0  0
    9.6154    0.2592   -1.6823 H   0  0  0  0  0  0  0  0  0  0  0  0
    8.4036    2.1939   -5.3304 H   0  0  0  0  0  0  0  0  0  0  0  0
    6.0784    2.2339   -4.5368 H   0  0  0  0  0  0  0  0  0  0  0  0
    9.9572   -1.3853   -4.5063 H   0  0  0  0  0  0  0  0  0  0  0  0
   11.4987   -3.2036   -3.9666 H   0  0  0  0  0  0  0  0  0  0  0  0
   14.3817   -0.3099   -2.5463 H   0  0  0  0  0  0  0  0  0  0  0  0
   12.8162    1.5052   -3.0998 H   0  0  0  0  0  0  0  0  0  0  0  0
   14.8495   -2.5630   -2.4154 H   0  0  0  0  0  0  0  0  0  0  0  0
   15.7876   -4.4888   -2.7539 H   0  0  0  0  0  0  0  0  0  0  0  0
   14.0256   -6.6040   -1.6308 H   0  0  0  0  0  0  0  0  0  0  0  0
   15.9464   -6.8582   -4.0089 H   0  0  0  0  0  0  0  0  0  0  0  0
   14.1813   -6.8883   -4.0949 H   0  0  0  0  0  0  0  0  0  0  0  0
   15.0436   -8.1904   -3.2623 H   0  0  0  0  0  0  0  0  0  0  0  0
   17.0899   -6.4660   -1.7044 H   0  0  0  0  0  0  0  0  0  0  0  0
   16.1171   -7.7554   -0.9704 H   0  0  0  0  0  0  0  0  0  0  0  0
   16.0827   -6.1182   -0.2943 H   0  0  0  0  0  0  0  0  0  0  0  0
  1  2  1  0  0  0  0
  1 28  1  0  0  0  0
  1 29  1  0  0  0  0
  1 30  1  0  0  0  0
  2  3  1  0  0  0  0
  2  4  1  0  0  0  0
  2 31  1  0  0  0  0
  3 32  1  0  0  0  0
  3 33  1  0  0  0  0
  3 34  1  0  0  0  0
  4  5  1  0  0  0  0
  4 35  1  0  0  0  0
  5  6  2  0  0  0  0
  5  7  1  0  0  0  0
  7  8  1  0  0  0  0
  7 36  1  0  0  0  0
  8  9  2  0  0  0  0
  8 13  1  0  0  0  0
  9 10  1  0  0  0  0
  9 37  1  0  0  0  0
 10 11  2  0  0  0  0
 10 38  1  0  0  0  0
 11 12  1  0  0  0  0
 11 14  1  0  0  0  0
 12 13  2  0  0  0  0
 12 39  1  0  0  0  0
 13 40  1  0  0  0  0
 14 15  1  0  0  0  0
 15 16  2  0  0  0  0
 15 20  1  0  0  0  0
 16 17  1  0  0  0  0
 16 41  1  0  0  0  0
 17 18  2  0  0  0  0
 17 42  1  0  0  0  0
 18 19  1  0  0  0  0
 18 21  1  0  0  0  0
 19 20  2  0  0  0  0
 19 43  1  0  0  0  0
 20 44  1  0  0  0  0
 21 22  1  0  0  0  0
 21 45  1  0  0  0  0
 22 23  2  0  0  0  0
 22 24  1  0  0  0  0
 24 25  1  0  0  0  0
 24 46  1  0  0  0  0
 25 26  1  0  0  0  0
 25 27  1  0  0  0  0
 25 47  1  0  0  0  0
 26 48  1  0  0  0  0
 26 49  1  0  0  0  0
 26 50  1  0  0  0  0
 27 51  1  0  0  0  0
 27 52  1  0  0  0  0
 27 53  1  0  0  0  0
M  END
