
 OpenBabel10072620103D

 24 23  0  0  0  0  0  0  0  0999 V2000
    1.0914    0.0614   -0.1239 C   0  0  0  0  0  0  0  0  0  0  0  0
    2.6233    0.0994   -0.0981 C   0  0  0  0  0  0  0  0  0  0  0  0
    3.1780    1.3014   -0.8692 C   0  0  0  0  0  0  0  0  0  0  0  0
    3.0869    0.1942    1.3632 C   0  0  0  0  0  0  0  0  0  0  0  0
    3.1932   -1.1447   -0.5819 O   0  0  0  0  0  0  0  0  0  0  0  0
    2.9691   -1.5694   -1.8496 C   0  0  0  0  0  0  0  0  0  0  0  0
    2.3058   -0.9915   -2.6931 O   0  0  0  0  0  0  0  0  0  0  0  0
    3.6189   -2.8758   -2.0772 C   0  0  0  0  0  0  0  0  0  0  0  0
    4.6152   -3.3382   -1.2961 C   0  0  0  0  0  0  0  0  0  0  0  0
    3.0440   -3.5945   -3.2452 C   0  0  0  0  0  0  0  0  0  0  0  0
    1.7003   -3.7616   -3.1483 F   0  0  0  0  0  0  0  0  0  0  0  0
    3.3002   -2.9769   -4.4256 F   0  0  0  0  0  0  0  0  0  0  0  0
    3.5629   -4.8505   -3.3635 F   0  0  0  0  0  0  0  0  0  0  0  0
    0.6641    0.9280    0.3918 H   0  0  0  0  0  0  0  0  0  0  0  0
    0.7158   -0.8492    0.3558 H   0  0  0  0  0  0  0  0  0  0  0  0
    0.6977    0.0633   -1.1447 H   0  0  0  0  0  0  0  0  0  0  0  0
    2.8689    2.2462   -0.4087 H   0  0  0  0  0  0  0  0  0  0  0  0
    2.8348    1.3139   -1.9081 H   0  0  0  0  0  0  0  0  0  0  0  0
    4.2729    1.2714   -0.9004 H   0  0  0  0  0  0  0  0  0  0  0  0
    2.7150    1.1013    1.8508 H   0  0  0  0  0  0  0  0  0  0  0  0
    4.1814    0.1911    1.4253 H   0  0  0  0  0  0  0  0  0  0  0  0
    2.7426   -0.6742    1.9371 H   0  0  0  0  0  0  0  0  0  0  0  0
    5.0065   -2.7736   -0.4549 H   0  0  0  0  0  0  0  0  0  0  0  0
    5.0736   -4.3047   -1.4900 H   0  0  0  0  0  0  0  0  0  0  0  0
  1  2  1  0  0  0  0
  1 14  1  0  0  0  0
  1 15  1  0  0  0  0
  1 16  1  0  0  0  0
  2  3  1  0  0  0  0
  2  4  1  0  0  0  0
  2  5  1  0  0  0  0
  3 17  1  0  0  0  0
  3 18  1  0  0  0  0
  3 19  1  0  0  0  0
  4 20  1  0  0  0  0
  4 21  1  0  0  0  0
  4 22  1  0  0  0  0
  5  6  1  0  0  0  0
  6  7  2  0  0  0  0
  6  8  1  0  0  0  0
  8  9  2  0  0  0  0
  8 10  1  0  0  0  0
  9 23  1  0  0  0  0
  9 24  1  0  0  0  0
 10 11  1  0  0  0  0
 10 12  1  0  0  0  0
 10 13  1  0  0  0  0
M  END
