
 OpenBabel10072619533D

 57 59  0  0  0  0  0  0  0  0999 V2000
    2.6094   -2.0771   -3.5520 C   0  0  0  0  0  0  0  0  0  0  0  0
    3.7471   -1.0778   -3.6332 C   0  0  0  0  0  0  0  0  0  0  0  0
    4.6343   -1.2737   -2.5244 O   0  0  0  0  0  0  0  0  0  0  0  0
    4.3566   -0.5786   -1.3842 C   0  0  0  0  0  0  0  0  0  0  0  0
    3.4345    0.2163   -1.2616 O   0  0  0  0  0  0  0  0  0  0  0  0
    5.3034   -0.9129   -0.3233 C   0  0  0  0  0  0  0  0  0  0  0  0
    4.9424   -1.4685    0.8964 C   0  0  0  0  0  0  0  0  0  0  0  0
    6.3147   -1.7610    1.8750 S   0  0  0  0  0  0  0  0  0  0  0  0
    7.4181   -1.2609    0.6759 C   0  0  0  0  0  0  0  0  0  0  0  0
    6.7544   -0.8515   -0.4752 C   0  0  0  0  0  0  0  0  0  0  0  0
    7.4425   -0.4156   -1.7369 C   0  0  0  0  0  0  0  0  0  0  0  0
    8.8571   -1.3548    0.9072 C   0  0  0  0  0  0  0  0  0  0  0  0
    9.7128   -1.3447    0.0297 O   0  0  0  0  0  0  0  0  0  0  0  0
    9.1349   -1.4415    2.2417 O   0  0  0  0  0  0  0  0  0  0  0  0
   10.5187   -1.4459    2.6137 C   0  0  0  0  0  0  0  0  0  0  0  0
   11.0526   -2.8628    2.6423 C   0  0  0  0  0  0  0  0  0  0  0  0
    3.7499   -1.9149    1.3829 N   0  0  0  0  0  0  0  0  0  0  0  0
    2.4870   -1.7086    0.8691 C   0  0  0  0  0  0  0  0  0  0  0  0
    1.5171   -2.6105    0.6079 C   0  0  0  0  0  0  0  0  0  0  0  0
    0.2658   -2.1235    0.1251 C   0  0  0  0  0  0  0  0  0  0  0  0
   -0.7475   -1.7223   -0.2737 N   0  0  0  0  0  0  0  0  0  0  0  0
    1.7952   -4.0159    0.7469 C   0  0  0  0  0  0  0  0  0  0  0  0
    2.9020   -4.5399    1.2597 N   0  0  0  0  0  0  0  0  0  0  0  0
    2.8873   -5.9229    1.2026 C   0  0  0  0  0  0  0  0  0  0  0  0
    1.7533   -6.4650    0.6401 C   0  0  0  0  0  0  0  0  0  0  0  0
    0.6790   -5.2214    0.1738 S   0  0  0  0  0  0  0  0  0  0  0  0
    4.0043   -6.7072    1.7079 C   0  0  0  0  0  0  0  0  0  0  0  0
    5.3157   -6.2354    1.5362 C   0  0  0  0  0  0  0  0  0  0  0  0
    6.4003   -6.9665    2.0288 C   0  0  0  0  0  0  0  0  0  0  0  0
    6.1716   -8.1659    2.7063 C   0  0  0  0  0  0  0  0  0  0  0  0
    4.8746   -8.6399    2.8912 C   0  0  0  0  0  0  0  0  0  0  0  0
    3.7938   -7.9145    2.3884 C   0  0  0  0  0  0  0  0  0  0  0  0
    7.7212   -6.6254    1.9215 O   0  0  0  0  0  0  0  0  0  0  0  0
    8.0147   -5.4159    1.2343 C   0  0  0  0  0  0  0  0  0  0  0  0
    2.0167   -2.0730   -4.4712 H   0  0  0  0  0  0  0  0  0  0  0  0
    1.9481   -1.8397   -2.7130 H   0  0  0  0  0  0  0  0  0  0  0  0
    2.9909   -3.0899   -3.3819 H   0  0  0  0  0  0  0  0  0  0  0  0
    3.3765   -0.0478   -3.6864 H   0  0  0  0  0  0  0  0  0  0  0  0
    4.3322   -1.2602   -4.5404 H   0  0  0  0  0  0  0  0  0  0  0  0
    8.3167    0.2053   -1.5205 H   0  0  0  0  0  0  0  0  0  0  0  0
    6.7790    0.1794   -2.3726 H   0  0  0  0  0  0  0  0  0  0  0  0
    7.7708   -1.2944   -2.3043 H   0  0  0  0  0  0  0  0  0  0  0  0
   10.5790   -1.0069    3.6146 H   0  0  0  0  0  0  0  0  0  0  0  0
   11.1104   -0.8072    1.9511 H   0  0  0  0  0  0  0  0  0  0  0  0
   10.4478   -3.4892    3.3053 H   0  0  0  0  0  0  0  0  0  0  0  0
   12.0869   -2.8737    2.9949 H   0  0  0  0  0  0  0  0  0  0  0  0
   11.0176   -3.3169    1.6474 H   0  0  0  0  0  0  0  0  0  0  0  0
    3.8264   -2.8339    1.8413 H   0  0  0  0  0  0  0  0  0  0  0  0
    2.3007   -0.6463    0.7039 H   0  0  0  0  0  0  0  0  0  0  0  0
    1.5022   -7.5014    0.4679 H   0  0  0  0  0  0  0  0  0  0  0  0
    5.4648   -5.2988    1.0072 H   0  0  0  0  0  0  0  0  0  0  0  0
    7.0166   -8.7302    3.0947 H   0  0  0  0  0  0  0  0  0  0  0  0
    4.7105   -9.5715    3.4273 H   0  0  0  0  0  0  0  0  0  0  0  0
    2.7889   -8.2963    2.5491 H   0  0  0  0  0  0  0  0  0  0  0  0
    9.1029   -5.2943    1.2185 H   0  0  0  0  0  0  0  0  0  0  0  0
    7.5924   -4.5593    1.7670 H   0  0  0  0  0  0  0  0  0  0  0  0
    7.6591   -5.4541    0.1981 H   0  0  0  0  0  0  0  0  0  0  0  0
  1  2  1  0  0  0  0
  1 35  1  0  0  0  0
  1 36  1  0  0  0  0
  1 37  1  0  0  0  0
  2  3  1  0  0  0  0
  2 38  1  0  0  0  0
  2 39  1  0  0  0  0
  3  4  1  0  0  0  0
  4  5  2  0  0  0  0
  4  6  1  0  0  0  0
  6  7  2  0  0  0  0
  6 10  1  0  0  0  0
  7  8  1  0  0  0  0
  7 17  1  0  0  0  0
  8  9  1  0  0  0  0
  9 10  2  0  0  0  0
  9 12  1  0  0  0  0
 10 11  1  0  0  0  0
 11 40  1  0  0  0  0
 11 41  1  0  0  0  0
 11 42  1  0  0  0  0
 12 13  2  0  0  0  0
 12 14  1  0  0  0  0
 14 15  1  0  0  0  0
 15 16  1  0  0  0  0
 15 43  1  0  0  0  0
 15 44  1  0  0  0  0
 16 45  1  0  0  0  0
 16 46  1  0  0  0  0
 16 47  1  0  0  0  0
 17 18  1  0  0  0  0
 17 48  1  0  0  0  0
 18 19  2  0  0  0  0
 18 49  1  0  0  0  0
 19 20  1  0  0  0  0
 19 22  1  0  0  0  0
 20 21  3  0  0  0  0
 22 23  2  0  0  0  0
 22 26  1  0  0  0  0
 23 24  1  0  0  0  0
 24 25  2  0  0  0  0
 24 27  1  0  0  0  0
 25 26  1  0  0  0  0
 25 50  1  0  0  0  0
 27 28  2  0  0  0  0
 27 32  1  0  0  0  0
 28 29  1  0  0  0  0
 28 51  1  0  0  0  0
 29 30  2  0  0  0  0
 29 33  1  0  0  0  0
 30 31  1  0  0  0  0
 30 52  1  0  0  0  0
 31 32  2  0  0  0  0
 31 53  1  0  0  0  0
 32 54  1  0  0  0  0
 33 34  1  0  0  0  0
 34 55  1  0  0  0  0
 34 56  1  0  0  0  0
 34 57  1  0  0  0  0
M  END
