
 OpenBabel10072620183D

 63 65  0  0  1  0  0  0  0  0999 V2000
    0.8673   -0.1458    0.5893 C   0  0  0  0  0  0  0  0  0  0  0  0
    2.3311    0.0021    0.2460 C   0  0  0  0  0  0  0  0  0  0  0  0
    2.6746    0.7644   -0.6608 O   0  0  0  0  0  0  0  0  0  0  0  0
    3.3482   -0.8859    1.0212 C   0  0  3  0  0  0  0  0  0  0  0  0
    4.8084   -0.5391    0.6682 C   0  0  0  0  0  0  0  0  0  0  0  0
    5.2234   -0.9697   -0.7410 C   0  0  2  0  0  0  0  0  0  0  0  0
    4.9404   -2.4636   -1.0022 C   0  0  3  0  0  0  0  0  0  0  0  0
    3.4824   -2.8211   -0.6767 C   0  0  1  0  0  0  0  0  0  0  0  0
    3.0906   -2.3820    0.7339 C   0  0  0  0  0  0  0  0  0  0  0  0
    2.5730   -2.2342   -1.5990 O   0  0  0  0  0  0  0  0  0  0  0  0
    5.7859   -3.2921   -0.1711 O   0  0  0  0  0  0  0  0  0  0  0  0
    7.0146   -3.5610   -0.6810 C   0  0  0  0  0  0  0  0  0  0  0  0
    7.4365   -3.2030   -1.7690 O   0  0  0  0  0  0  0  0  0  0  0  0
    7.7583   -4.3645    0.3070 C   0  0  0  0  0  0  0  0  0  0  0  0
    9.0127   -4.7561    0.0380 C   0  0  0  0  0  0  0  0  0  0  0  0
    9.8336   -5.5377    0.9713 C   0  0  0  0  0  0  0  0  0  0  0  0
   11.1963   -5.2263    1.0958 C   0  0  0  0  0  0  0  0  0  0  0  0
   11.9959   -5.9718    1.9566 C   0  0  0  0  0  0  0  0  0  0  0  0
   11.4552   -7.0278    2.6841 C   0  0  0  0  0  0  0  0  0  0  0  0
   10.1154   -7.3594    2.5624 C   0  0  0  0  0  0  0  0  0  0  0  0
    9.3046   -6.6166    1.7003 C   0  0  0  0  0  0  0  0  0  0  0  0
   12.2484   -7.7552    3.5237 O   0  0  0  0  0  0  0  0  0  0  0  0
   13.3277   -5.7055    2.1195 O   0  0  0  0  0  0  0  0  0  0  0  0
    6.6175   -0.6700   -0.8815 O   0  0  0  0  0  0  0  0  0  0  0  0
    3.1634   -0.7645    2.4602 O   0  0  0  0  0  0  0  0  0  0  0  0
    3.2118    0.4650    3.0269 C   0  0  0  0  0  0  0  0  0  0  0  0
    3.3647    1.5272    2.4532 O   0  0  0  0  0  0  0  0  0  0  0  0
    3.0013    0.3061    4.4799 C   0  0  0  0  0  0  0  0  0  0  0  0
    3.0377    1.3892    5.2712 C   0  0  0  0  0  0  0  0  0  0  0  0
    2.8091    1.3835    6.7247 C   0  0  0  0  0  0  0  0  0  0  0  0
    2.3575    2.5684    7.3304 C   0  0  0  0  0  0  0  0  0  0  0  0
    2.1454    2.6071    8.7054 C   0  0  0  0  0  0  0  0  0  0  0  0
    2.3836    1.4810    9.4861 C   0  0  0  0  0  0  0  0  0  0  0  0
    2.8444    0.3075    8.9122 C   0  0  0  0  0  0  0  0  0  0  0  0
    3.0650    0.2617    7.5319 C   0  0  0  0  0  0  0  0  0  0  0  0
    2.1713    1.5264   10.8336 O   0  0  0  0  0  0  0  0  0  0  0  0
    1.7023    3.7364    9.3378 O   0  0  0  0  0  0  0  0  0  0  0  0
    0.3285    0.7505    0.2678 H   0  0  0  0  0  0  0  0  0  0  0  0
    0.7292   -0.2508    1.6674 H   0  0  0  0  0  0  0  0  0  0  0  0
    0.4547   -1.0164    0.0750 H   0  0  0  0  0  0  0  0  0  0  0  0
    5.4832   -0.9973    1.4051 H   0  0  0  0  0  0  0  0  0  0  0  0
    4.9926    0.5379    0.7717 H   0  0  0  0  0  0  0  0  0  0  0  0
    4.6987   -0.3706   -1.4917 H   0  0  0  0  0  0  0  0  0  0  0  0
    5.1275   -2.6846   -2.0611 H   0  0  0  0  0  0  0  0  0  0  0  0
    3.3515   -3.9083   -0.7394 H   0  0  0  0  0  0  0  0  0  0  0  0
    3.6462   -2.9866    1.4641 H   0  0  0  0  0  0  0  0  0  0  0  0
    2.0332   -2.6159    0.9100 H   0  0  0  0  0  0  0  0  0  0  0  0
    2.7826   -2.5598   -2.4934 H   0  0  0  0  0  0  0  0  0  0  0  0
    7.2580   -4.5933    1.2396 H   0  0  0  0  0  0  0  0  0  0  0  0
    9.4899   -4.4748   -0.8997 H   0  0  0  0  0  0  0  0  0  0  0  0
   11.6176   -4.4020    0.5277 H   0  0  0  0  0  0  0  0  0  0  0  0
    9.7069   -8.1924    3.1262 H   0  0  0  0  0  0  0  0  0  0  0  0
    8.2602   -6.9008    1.5962 H   0  0  0  0  0  0  0  0  0  0  0  0
   13.1339   -7.3488    3.4375 H   0  0  0  0  0  0  0  0  0  0  0  0
   13.5579   -4.9468    1.5556 H   0  0  0  0  0  0  0  0  0  0  0  0
    6.9515   -1.1308   -1.6765 H   0  0  0  0  0  0  0  0  0  0  0  0
    2.8014   -0.6922    4.8458 H   0  0  0  0  0  0  0  0  0  0  0  0
    3.2245    2.3679    4.8288 H   0  0  0  0  0  0  0  0  0  0  0  0
    2.1681    3.4491    6.7235 H   0  0  0  0  0  0  0  0  0  0  0  0
    3.0378   -0.5626    9.5326 H   0  0  0  0  0  0  0  0  0  0  0  0
    3.4497   -0.6609    7.1055 H   0  0  0  0  0  0  0  0  0  0  0  0
    1.8668    2.4403   11.0028 H   0  0  0  0  0  0  0  0  0  0  0  0
    1.6003    4.4384    8.6720 H   0  0  0  0  0  0  0  0  0  0  0  0
  1  2  1  0  0  0  0
  1 38  1  0  0  0  0
  1 39  1  0  0  0  0
  1 40  1  0  0  0  0
  2  3  2  0  0  0  0
  2  4  1  0  0  0  0
  4  5  1  0  0  0  0
  4  9  1  0  0  0  0
  4 25  1  0  0  0  0
  5  6  1  0  0  0  0
  5 41  1  0  0  0  0
  5 42  1  0  0  0  0
  6  7  1  0  0  0  0
  6 24  1  0  0  0  0
  6 43  1  6  0  0  0
  7  8  1  0  0  0  0
  7 11  1  0  0  0  0
  7 44  1  0  0  0  0
  8  9  1  0  0  0  0
  8 10  1  0  0  0  0
  8 45  1  6  0  0  0
  9 46  1  0  0  0  0
  9 47  1  0  0  0  0
 10 48  1  0  0  0  0
 11 12  1  0  0  0  0
 12 13  2  0  0  0  0
 12 14  1  0  0  0  0
 14 15  2  0  0  0  0
 14 49  1  0  0  0  0
 15 16  1  0  0  0  0
 15 50  1  0  0  0  0
 16 17  2  0  0  0  0
 16 21  1  0  0  0  0
 17 18  1  0  0  0  0
 17 51  1  0  0  0  0
 18 19  2  0  0  0  0
 18 23  1  0  0  0  0
 19 20  1  0  0  0  0
 19 22  1  0  0  0  0
 20 21  2  0  0  0  0
 20 52  1  0  0  0  0
 21 53  1  0  0  0  0
 22 54  1  0  0  0  0
 23 55  1  0  0  0  0
 24 56  1  0  0  0  0
 25 26  1  0  0  0  0
 26 27  2  0  0  0  0
 26 28  1  0  0  0  0
 28 29  2  0  0  0  0
 28 57  1  0  0  0  0
 29 30  1  0  0  0  0
 29 58  1  0  0  0  0
 30 31  2  0  0  0  0
 30 35  1  0  0  0  0
 31 32  1  0  0  0  0
 31 59  1  0  0  0  0
 32 33  2  0  0  0  0
 32 37  1  0  0  0  0
 33 34  1  0  0  0  0
 33 36  1  0  0  0  0
 34 35  2  0  0  0  0
 34 60  1  0  0  0  0
 35 61  1  0  0  0  0
 36 62  1  0  0  0  0
 37 63  1  0  0  0  0
M  END
