
 OpenBabel10072616273D

 25 24  0  0  1  0  0  0  0  0999 V2000
    2.8104    3.5580    1.6453 C   0  0  0  0  0  0  0  0  0  0  0  0
    2.3859    2.6307    0.5186 C   0  0  0  0  0  0  0  0  0  0  0  0
    2.7971    1.1698    0.7362 C   0  0  3  0  0  0  0  0  0  0  0  0
    2.2074    0.5166    1.9928 C   0  0  0  0  0  0  0  0  0  0  0  0
    0.7788    0.6839    1.9844 O   0  0  0  0  0  0  0  0  0  0  0  0
    0.1380   -0.0053    2.9624 C   0  0  0  0  0  0  0  0  0  0  0  0
    0.6706   -0.7215    3.7959 O   0  0  0  0  0  0  0  0  0  0  0  0
   -1.3364    0.1658    2.8542 C   0  0  0  0  0  0  0  0  0  0  0  0
   -1.8791    1.2891    2.3534 C   0  0  0  0  0  0  0  0  0  0  0  0
   -2.1535   -0.9814    3.3607 C   0  0  0  0  0  0  0  0  0  0  0  0
    2.3734    0.4241   -0.4132 O   0  0  0  0  0  0  0  0  0  0  0  0
    2.6136    4.5989    1.3687 H   0  0  0  0  0  0  0  0  0  0  0  0
    3.8805    3.4585    1.8538 H   0  0  0  0  0  0  0  0  0  0  0  0
    2.2543    3.3506    2.5648 H   0  0  0  0  0  0  0  0  0  0  0  0
    2.8314    2.9801   -0.4218 H   0  0  0  0  0  0  0  0  0  0  0  0
    1.3016    2.7047    0.3674 H   0  0  0  0  0  0  0  0  0  0  0  0
    3.8896    1.0945    0.7769 H   0  0  0  0  0  0  0  0  0  0  0  0
    2.6182    0.9735    2.8994 H   0  0  0  0  0  0  0  0  0  0  0  0
    2.4410   -0.5554    1.9820 H   0  0  0  0  0  0  0  0  0  0  0  0
   -1.2735    2.1213    2.0088 H   0  0  0  0  0  0  0  0  0  0  0  0
   -2.9551    1.4162    2.2918 H   0  0  0  0  0  0  0  0  0  0  0  0
   -2.0186   -1.1042    4.4400 H   0  0  0  0  0  0  0  0  0  0  0  0
   -1.8572   -1.9103    2.8607 H   0  0  0  0  0  0  0  0  0  0  0  0
   -3.2220   -0.8337    3.1707 H   0  0  0  0  0  0  0  0  0  0  0  0
    1.4007    0.3742   -0.3686 H   0  0  0  0  0  0  0  0  0  0  0  0
  1  2  1  0  0  0  0
  1 12  1  0  0  0  0
  1 13  1  0  0  0  0
  1 14  1  0  0  0  0
  2  3  1  0  0  0  0
  2 15  1  0  0  0  0
  2 16  1  0  0  0  0
  3  4  1  0  0  0  0
  3 11  1  0  0  0  0
  3 17  1  0  0  0  0
  4  5  1  0  0  0  0
  4 18  1  0  0  0  0
  4 19  1  0  0  0  0
  5  6  1  0  0  0  0
  6  7  2  0  0  0  0
  6  8  1  0  0  0  0
  8  9  2  0  0  0  0
  8 10  1  0  0  0  0
  9 20  1  0  0  0  0
  9 21  1  0  0  0  0
 10 22  1  0  0  0  0
 10 23  1  0  0  0  0
 10 24  1  0  0  0  0
 11 25  1  0  0  0  0
M  END
