
 OpenBabel10072620213D

 39 40  0  0  0  0  0  0  0  0999 V2000
    4.4605   -4.5691   -5.2715 C   0  0  0  0  0  0  0  0  0  0  0  0
    3.4404   -5.6332   -4.9854 C   0  0  0  0  0  0  0  0  0  0  0  0
    2.7660   -5.7475   -3.7583 C   0  0  0  0  0  0  0  0  0  0  0  0
    1.8697   -6.7295   -3.5292 N   0  0  0  0  0  0  0  0  0  0  0  0
    1.5947   -7.5979   -4.5259 C   0  0  0  0  0  0  0  0  0  0  0  0
    2.1873   -7.5455   -5.7713 C   0  0  0  0  0  0  0  0  0  0  0  0
    3.1241   -6.5484   -6.0007 C   0  0  0  0  0  0  0  0  0  0  0  0
    3.1029   -4.8667   -2.7124 N   0  0  0  0  0  0  0  0  0  0  0  0
    2.4577   -4.6400   -1.5237 C   0  0  0  0  0  0  0  0  0  0  0  0
    0.8294   -4.8389   -1.1865 S   0  0  0  0  0  0  0  0  0  0  0  0
    3.2146   -4.0390   -0.5418 N   0  0  0  0  0  0  0  0  0  0  0  0
    4.6061   -4.0562   -0.3169 C   0  0  0  0  0  0  0  0  0  0  0  0
    5.1142   -3.1917    0.6570 C   0  0  0  0  0  0  0  0  0  0  0  0
    6.4830   -3.1712    0.9455 C   0  0  0  0  0  0  0  0  0  0  0  0
    7.3691   -4.0163    0.2642 C   0  0  0  0  0  0  0  0  0  0  0  0
    6.8461   -4.9120   -0.6752 C   0  0  0  0  0  0  0  0  0  0  0  0
    5.4794   -4.9380   -0.9552 C   0  0  0  0  0  0  0  0  0  0  0  0
    8.8484   -3.9989    0.5979 C   0  0  0  0  0  0  0  0  0  0  0  0
    9.2079   -5.2218    1.4430 C   0  0  0  0  0  0  0  0  0  0  0  0
    9.7252   -3.9183   -0.6553 C   0  0  0  0  0  0  0  0  0  0  0  0
    4.0104   -3.5757   -5.1865 H   0  0  0  0  0  0  0  0  0  0  0  0
    4.8561   -4.6590   -6.2891 H   0  0  0  0  0  0  0  0  0  0  0  0
    5.3125   -4.6488   -4.5892 H   0  0  0  0  0  0  0  0  0  0  0  0
    0.8577   -8.3607   -4.2885 H   0  0  0  0  0  0  0  0  0  0  0  0
    1.9314   -8.2621   -6.5426 H   0  0  0  0  0  0  0  0  0  0  0  0
    3.5987   -6.4786   -6.9772 H   0  0  0  0  0  0  0  0  0  0  0  0
    3.8839   -4.2505   -2.8739 H   0  0  0  0  0  0  0  0  0  0  0  0
    2.6490   -3.6261    0.1936 H   0  0  0  0  0  0  0  0  0  0  0  0
    4.4540   -2.5183    1.1988 H   0  0  0  0  0  0  0  0  0  0  0  0
    6.8498   -2.4926    1.7124 H   0  0  0  0  0  0  0  0  0  0  0  0
    7.4910   -5.6269   -1.1816 H   0  0  0  0  0  0  0  0  0  0  0  0
    5.1256   -5.7039   -1.6379 H   0  0  0  0  0  0  0  0  0  0  0  0
    9.0641   -3.1013    1.1920 H   0  0  0  0  0  0  0  0  0  0  0  0
    9.0199   -6.1563    0.9016 H   0  0  0  0  0  0  0  0  0  0  0  0
    8.6117   -5.2464    2.3628 H   0  0  0  0  0  0  0  0  0  0  0  0
   10.2653   -5.2008    1.7264 H   0  0  0  0  0  0  0  0  0  0  0  0
    9.6375   -4.8105   -1.2838 H   0  0  0  0  0  0  0  0  0  0  0  0
   10.7798   -3.8166   -0.3808 H   0  0  0  0  0  0  0  0  0  0  0  0
    9.4512   -3.0533   -1.2690 H   0  0  0  0  0  0  0  0  0  0  0  0
  1  2  1  0  0  0  0
  1 21  1  0  0  0  0
  1 22  1  0  0  0  0
  1 23  1  0  0  0  0
  2  3  2  0  0  0  0
  2  7  1  0  0  0  0
  3  4  1  0  0  0  0
  3  8  1  0  0  0  0
  4  5  2  0  0  0  0
  5  6  1  0  0  0  0
  5 24  1  0  0  0  0
  6  7  2  0  0  0  0
  6 25  1  0  0  0  0
  7 26  1  0  0  0  0
  8  9  1  0  0  0  0
  8 27  1  0  0  0  0
  9 10  2  0  0  0  0
  9 11  1  0  0  0  0
 11 12  1  0  0  0  0
 11 28  1  0  0  0  0
 12 13  2  0  0  0  0
 12 17  1  0  0  0  0
 13 14  1  0  0  0  0
 13 29  1  0  0  0  0
 14 15  2  0  0  0  0
 14 30  1  0  0  0  0
 15 16  1  0  0  0  0
 15 18  1  0  0  0  0
 16 17  2  0  0  0  0
 16 31  1  0  0  0  0
 17 32  1  0  0  0  0
 18 19  1  0  0  0  0
 18 20  1  0  0  0  0
 18 33  1  0  0  0  0
 19 34  1  0  0  0  0
 19 35  1  0  0  0  0
 19 36  1  0  0  0  0
 20 37  1  0  0  0  0
 20 38  1  0  0  0  0
 20 39  1  0  0  0  0
M  END
