
 OpenBabel10072619553D

 46 45  0  0  0  0  0  0  0  0999 V2000
    0.9301    0.8595   -0.9992 C   0  0  0  0  0  0  0  0  0  0  0  0
    2.4441    1.0596   -1.1529 N   0  3  0  0  0  0  0  0  0  0  0  0
    3.1037   -0.3171   -1.1347 C   0  0  0  0  0  0  0  0  0  0  0  0
    2.6968    1.7290   -2.4992 C   0  0  0  0  0  0  0  0  0  0  0  0
    2.9273    1.9312    0.0246 C   0  0  0  0  0  0  0  0  0  0  0  0
    4.4140    2.2797   -0.0343 C   0  0  0  0  0  0  0  0  0  0  0  0
    4.8215    3.0903    1.1976 C   0  0  0  0  0  0  0  0  0  0  0  0
    6.2646    3.4060    1.0960 N   0  0  0  0  0  0  0  0  0  0  0  0
    6.9564    3.9659    2.5732 S   0  0  0  0  0  0  0  0  0  0  0  0
    6.3731    5.2780    2.7483 O   0  0  0  0  0  0  0  0  0  0  0  0
    6.7176    2.9078    3.5309 O   0  0  0  0  0  0  0  0  0  0  0  0
    8.7389    4.0706    2.1583 C   0  0  0  0  0  0  0  0  0  0  0  0
    9.4929    4.9040    3.1703 C   0  0  0  0  0  0  0  0  0  0  0  0
    9.5117    4.3993    4.6044 C   0  0  0  0  0  0  0  0  0  0  0  0
   10.0820    3.0119    4.8744 C   0  0  0  0  0  0  0  0  0  0  0  0
   11.5287    2.8445    4.4726 C   0  0  0  0  0  0  0  0  0  0  0  0
   12.0449    1.4944    4.9345 C   0  0  0  0  0  0  0  0  0  0  0  0
   11.3305    0.4754    4.4008 F   0  0  0  0  0  0  0  0  0  0  0  0
   13.3334    1.3089    4.5562 F   0  0  0  0  0  0  0  0  0  0  0  0
   12.0056    1.3542    6.2778 F   0  0  0  0  0  0  0  0  0  0  0  0
   11.6371    2.9419    3.1171 F   0  0  0  0  0  0  0  0  0  0  0  0
   12.2857    3.8510    4.9833 F   0  0  0  0  0  0  0  0  0  0  0  0
    9.9457    2.7559    6.2089 F   0  0  0  0  0  0  0  0  0  0  0  0
    9.3118    2.0804    4.2517 F   0  0  0  0  0  0  0  0  0  0  0  0
   10.2012    5.3047    5.3658 F   0  0  0  0  0  0  0  0  0  0  0  0
    8.2352    4.4492    5.0885 F   0  0  0  0  0  0  0  0  0  0  0  0
   10.7841    5.0528    2.7423 F   0  0  0  0  0  0  0  0  0  0  0  0
    8.9938    6.1779    3.1559 F   0  0  0  0  0  0  0  0  0  0  0  0
    9.2968    2.8310    2.0374 F   0  0  0  0  0  0  0  0  0  0  0  0
    8.8714    4.6321    0.9103 F   0  0  0  0  0  0  0  0  0  0  0  0
    0.5764    0.2334   -1.8240 H   0  0  0  0  0  0  0  0  0  0  0  0
    0.4477    1.8409   -1.0323 H   0  0  0  0  0  0  0  0  0  0  0  0
    0.7428    0.3692   -0.0393 H   0  0  0  0  0  0  0  0  0  0  0  0
    2.6426   -0.9306   -1.9148 H   0  0  0  0  0  0  0  0  0  0  0  0
    2.9417   -0.7646   -0.1499 H   0  0  0  0  0  0  0  0  0  0  0  0
    4.1706   -0.2026   -1.3397 H   0  0  0  0  0  0  0  0  0  0  0  0
    2.2196    1.1281   -3.2794 H   0  0  0  0  0  0  0  0  0  0  0  0
    3.7743    1.7718   -2.6770 H   0  0  0  0  0  0  0  0  0  0  0  0
    2.2654    2.7337   -2.4716 H   0  0  0  0  0  0  0  0  0  0  0  0
    2.6922    1.3786    0.9420 H   0  0  0  0  0  0  0  0  0  0  0  0
    2.3236    2.8464    0.0072 H   0  0  0  0  0  0  0  0  0  0  0  0
    4.6389    2.8656   -0.9324 H   0  0  0  0  0  0  0  0  0  0  0  0
    5.0280    1.3739   -0.0790 H   0  0  0  0  0  0  0  0  0  0  0  0
    4.6188    2.5003    2.0973 H   0  0  0  0  0  0  0  0  0  0  0  0
    4.2495    4.0230    1.2448 H   0  0  0  0  0  0  0  0  0  0  0  0
    6.4618    4.1012    0.3666 H   0  0  0  0  0  0  0  0  0  0  0  0
  1  2  1  0  0  0  0
  1 31  1  0  0  0  0
  1 32  1  0  0  0  0
  1 33  1  0  0  0  0
  2  3  1  0  0  0  0
  2  4  1  0  0  0  0
  2  5  1  0  0  0  0
  3 34  1  0  0  0  0
  3 35  1  0  0  0  0
  3 36  1  0  0  0  0
  4 37  1  0  0  0  0
  4 38  1  0  0  0  0
  4 39  1  0  0  0  0
  5  6  1  0  0  0  0
  5 40  1  0  0  0  0
  5 41  1  0  0  0  0
  6  7  1  0  0  0  0
  6 42  1  0  0  0  0
  6 43  1  0  0  0  0
  7  8  1  0  0  0  0
  7 44  1  0  0  0  0
  7 45  1  0  0  0  0
  8  9  1  0  0  0  0
  8 46  1  0  0  0  0
  9 10  2  0  0  0  0
  9 11  2  0  0  0  0
  9 12  1  0  0  0  0
 12 13  1  0  0  0  0
 12 29  1  0  0  0  0
 12 30  1  0  0  0  0
 13 14  1  0  0  0  0
 13 27  1  0  0  0  0
 13 28  1  0  0  0  0
 14 15  1  0  0  0  0
 14 25  1  0  0  0  0
 14 26  1  0  0  0  0
 15 16  1  0  0  0  0
 15 23  1  0  0  0  0
 15 24  1  0  0  0  0
 16 17  1  0  0  0  0
 16 21  1  0  0  0  0
 16 22  1  0  0  0  0
 17 18  1  0  0  0  0
 17 19  1  0  0  0  0
 17 20  1  0  0  0  0
M  CHG  1   2   1
M  END
