
 OpenBabel10072619523D

 48 50  0  0  0  0  0  0  0  0999 V2000
    4.2544    1.9632    0.1874 C   0  0  0  0  0  0  0  0  0  0  0  0
    3.1988    2.0624   -0.9018 C   0  0  0  0  0  0  0  0  0  0  0  0
    3.6721    1.4252   -2.0792 O   0  0  0  0  0  0  0  0  0  0  0  0
    3.6087    0.0114   -2.1959 C   0  0  0  0  0  0  0  0  0  0  0  0
    3.1283   -0.6836   -1.2465 O   0  0  0  0  0  0  0  0  0  0  0  0
    4.1154   -0.6706   -3.4562 C   0  0  0  0  0  0  0  0  0  0  0  0
    4.0546   -2.0251   -3.5680 C   0  0  0  0  0  0  0  0  0  0  0  0
    4.5613   -2.7071   -4.8283 C   0  0  0  0  0  0  0  0  0  0  0  0
    5.5426   -3.5809   -4.7293 C   0  0  0  0  0  0  0  0  0  0  0  0
    6.0230   -4.2084   -5.7971 N   0  0  0  0  0  0  0  0  0  0  0  0
    5.4655   -3.9243   -7.0389 C   0  0  0  0  0  0  0  0  0  0  0  0
    5.8990   -4.5289   -8.1866 C   0  0  0  0  0  0  0  0  0  0  0  0
    5.5329   -4.0849   -9.3553 C   0  0  0  0  0  0  0  0  0  0  0  0
    4.7053   -2.9898   -9.4534 C   0  0  0  0  0  0  0  0  0  0  0  0
    3.8745   -2.6978   -8.3450 C   0  0  0  0  0  0  0  0  0  0  0  0
    4.4207   -2.9805   -7.0982 N   0  0  0  0  0  0  0  0  0  0  0  0
    4.0020   -2.4040   -5.9875 C   0  0  0  0  0  0  0  0  0  0  0  0
    3.0577   -1.5545   -6.0320 O   0  0  0  0  0  0  0  0  0  0  0  0
    6.8200   -5.7348   -8.0972 C   0  0  0  0  0  0  0  0  0  0  0  0
    6.0990   -3.8580   -3.4526 O   0  0  0  0  0  0  0  0  0  0  0  0
    7.4624   -4.2385   -3.3397 C   0  0  0  0  0  0  0  0  0  0  0  0
    8.3562   -3.8069   -4.2035 C   0  0  0  0  0  0  0  0  0  0  0  0
    9.7013   -4.1741   -4.0858 C   0  0  0  0  0  0  0  0  0  0  0  0
   10.0653   -5.1471   -3.2776 C   0  0  0  0  0  0  0  0  0  0  0  0
    9.0785   -5.7988   -2.5400 C   0  0  0  0  0  0  0  0  0  0  0  0
    7.8862   -5.0757   -2.3133 C   0  0  0  0  0  0  0  0  0  0  0  0
   11.5255   -5.5499   -3.1517 C   0  0  0  0  0  0  0  0  0  0  0  0
    4.6899    0.1607   -4.5917 C   0  0  0  0  0  0  0  0  0  0  0  0
    5.1665    0.8503   -5.5336 N   0  0  0  0  0  0  0  0  0  0  0  0
    3.8978    2.4433    1.0746 H   0  0  0  0  0  0  0  0  0  0  0  0
    5.1524    2.4431   -0.1415 H   0  0  0  0  0  0  0  0  0  0  0  0
    4.4562    0.9332    0.3957 H   0  0  0  0  0  0  0  0  0  0  0  0
    2.9970    3.0923   -1.1101 H   0  0  0  0  0  0  0  0  0  0  0  0
    2.3008    1.5825   -0.5729 H   0  0  0  0  0  0  0  0  0  0  0  0
    3.6645   -2.5895   -2.7971 H   0  0  0  0  0  0  0  0  0  0  0  0
    5.8648   -4.5564  -10.2112 H   0  0  0  0  0  0  0  0  0  0  0  0
    4.6909   -2.4036  -10.3027 H   0  0  0  0  0  0  0  0  0  0  0  0
    2.9278   -2.3021   -8.4551 H   0  0  0  0  0  0  0  0  0  0  0  0
    7.0153   -5.9590   -7.0693 H   0  0  0  0  0  0  0  0  0  0  0  0
    7.7413   -5.5177   -8.5962 H   0  0  0  0  0  0  0  0  0  0  0  0
    6.3518   -6.5765   -8.5631 H   0  0  0  0  0  0  0  0  0  0  0  0
    8.0617   -3.1904   -4.9769 H   0  0  0  0  0  0  0  0  0  0  0  0
   10.4162   -3.6763   -4.6391 H   0  0  0  0  0  0  0  0  0  0  0  0
    9.2114   -6.7566   -2.1795 H   0  0  0  0  0  0  0  0  0  0  0  0
    7.3570   -5.1642   -1.4317 H   0  0  0  0  0  0  0  0  0  0  0  0
   12.1216   -4.9356   -3.7937 H   0  0  0  0  0  0  0  0  0  0  0  0
   11.6382   -6.5758   -3.4344 H   0  0  0  0  0  0  0  0  0  0  0  0
   11.8447   -5.4220   -2.1385 H   0  0  0  0  0  0  0  0  0  0  0  0
  1  2  1  0  0  0  0
  1 30  1  0  0  0  0
  1 31  1  0  0  0  0
  1 32  1  0  0  0  0
  2  3  1  0  0  0  0
  2 33  1  0  0  0  0
  2 34  1  0  0  0  0
  3  4  1  0  0  0  0
  4  5  2  0  0  0  0
  4  6  1  0  0  0  0
  6  7  2  0  0  0  0
  6 28  1  0  0  0  0
  7  8  1  0  0  0  0
  7 35  1  0  0  0  0
  8  9  2  0  0  0  0
  8 17  1  0  0  0  0
  9 10  1  0  0  0  0
  9 20  1  0  0  0  0
 10 11  2  0  0  0  0
 11 12  1  0  0  0  0
 11 16  1  0  0  0  0
 12 13  2  0  0  0  0
 12 19  1  0  0  0  0
 13 14  1  0  0  0  0
 13 36  1  0  0  0  0
 14 15  2  0  0  0  0
 14 37  1  0  0  0  0
 15 16  1  0  0  0  0
 15 38  1  0  0  0  0
 16 17  1  0  0  0  0
 17 18  2  0  0  0  0
 19 39  1  0  0  0  0
 19 40  1  0  0  0  0
 19 41  1  0  0  0  0
 20 21  1  0  0  0  0
 21 22  2  0  0  0  0
 21 26  1  0  0  0  0
 22 23  1  0  0  0  0
 22 42  1  0  0  0  0
 23 24  2  0  0  0  0
 23 43  1  0  0  0  0
 24 25  1  0  0  0  0
 24 27  1  0  0  0  0
 25 26  2  0  0  0  0
 25 44  1  0  0  0  0
 26 45  1  0  0  0  0
 27 46  1  0  0  0  0
 27 47  1  0  0  0  0
 27 48  1  0  0  0  0
 28 29  3  0  0  0  0
M  END
