
 OpenBabel10072619443D

 62 66  0  0  0  0  0  0  0  0999 V2000
   -6.4053   -6.6645    1.0679 C   0  0  0  0  0  0  0  0  0  0  0  0
   -6.0903   -5.2080    0.8952 C   0  0  0  0  0  0  0  0  0  0  0  0
   -7.1155   -4.2693    0.7453 C   0  0  0  0  0  0  0  0  0  0  0  0
   -6.8245   -2.9088    0.5831 C   0  0  0  0  0  0  0  0  0  0  0  0
   -5.4999   -2.4677    0.5693 C   0  0  0  0  0  0  0  0  0  0  0  0
   -4.4752   -3.4043    0.7249 C   0  0  0  0  0  0  0  0  0  0  0  0
   -4.7645   -4.7641    0.8856 C   0  0  0  0  0  0  0  0  0  0  0  0
   -5.0805   -1.1700    0.4144 O   0  0  0  0  0  0  0  0  0  0  0  0
   -6.1096   -0.1876    0.2465 C   0  0  0  0  0  0  0  0  0  0  0  0
   -5.4831    1.1970    0.1177 C   0  0  0  0  0  0  0  0  0  0  0  0
   -6.3511    2.3193   -0.2100 N   0  0  0  0  0  0  0  0  0  0  0  0
   -7.7338    2.3948   -0.2219 C   0  0  0  0  0  0  0  0  0  0  0  0
   -8.7850    1.5165    0.0878 C   0  0  0  0  0  0  0  0  0  0  0  0
  -10.0997    1.9822   -0.0529 C   0  0  0  0  0  0  0  0  0  0  0  0
  -10.3673    3.2753   -0.4905 C   0  0  0  0  0  0  0  0  0  0  0  0
   -9.3212    4.1438   -0.7985 C   0  0  0  0  0  0  0  0  0  0  0  0
   -7.9998    3.6960   -0.6563 C   0  0  0  0  0  0  0  0  0  0  0  0
   -6.8503    4.3916   -0.8811 N   0  0  0  0  0  0  0  0  0  0  0  0
   -5.8713    3.5744   -0.5690 C   0  0  0  0  0  0  0  0  0  0  0  0
   -4.4858    3.8592   -0.6119 C   0  0  0  0  0  0  0  0  0  0  0  0
   -3.7967    4.3499    0.4380 C   0  0  0  0  0  0  0  0  0  0  0  0
   -4.3537    4.6149    1.7835 C   0  0  0  0  0  0  0  0  0  0  0  0
   -3.7516    4.0341    2.9114 C   0  0  0  0  0  0  0  0  0  0  0  0
   -4.2060    4.3341    4.2000 C   0  0  0  0  0  0  0  0  0  0  0  0
   -5.2672    5.2199    4.3689 C   0  0  0  0  0  0  0  0  0  0  0  0
   -5.8798    5.8013    3.2617 C   0  0  0  0  0  0  0  0  0  0  0  0
   -5.4192    5.5046    1.9750 C   0  0  0  0  0  0  0  0  0  0  0  0
   -5.8143    5.6084    5.9528 Cl  0  0  0  0  0  0  0  0  0  0  0  0
   -2.4312    4.7441    0.3802 O   0  0  0  0  0  0  0  0  0  0  0  0
   -1.5830    4.5525   -0.6616 C   0  0  0  0  0  0  0  0  0  0  0  0
   -1.7691    3.8863   -1.6690 O   0  0  0  0  0  0  0  0  0  0  0  0
   -0.3219    5.3015   -0.4078 C   0  0  0  0  0  0  0  0  0  0  0  0
    0.6361    5.3260   -1.4304 C   0  0  0  0  0  0  0  0  0  0  0  0
    1.8355    6.0184   -1.2580 C   0  0  0  0  0  0  0  0  0  0  0  0
    2.0827    6.6871   -0.0612 C   0  0  0  0  0  0  0  0  0  0  0  0
    1.1386    6.6747    0.9643 C   0  0  0  0  0  0  0  0  0  0  0  0
   -0.0653    5.9828    0.7938 C   0  0  0  0  0  0  0  0  0  0  0  0
    3.5656    7.5304    0.1500 Cl  0  0  0  0  0  0  0  0  0  0  0  0
   -7.4847   -6.8455    1.0222 H   0  0  0  0  0  0  0  0  0  0  0  0
   -6.0484   -7.0163    2.0410 H   0  0  0  0  0  0  0  0  0  0  0  0
   -5.9358   -7.2522    0.2723 H   0  0  0  0  0  0  0  0  0  0  0  0
   -8.1544   -4.5924    0.7511 H   0  0  0  0  0  0  0  0  0  0  0  0
   -7.6621   -2.2288    0.4708 H   0  0  0  0  0  0  0  0  0  0  0  0
   -3.4394   -3.0742    0.7208 H   0  0  0  0  0  0  0  0  0  0  0  0
   -3.9470   -5.4724    1.0013 H   0  0  0  0  0  0  0  0  0  0  0  0
   -6.7490   -0.2047    1.1345 H   0  0  0  0  0  0  0  0  0  0  0  0
   -6.6798   -0.4136   -0.6621 H   0  0  0  0  0  0  0  0  0  0  0  0
   -4.7148    1.1514   -0.6652 H   0  0  0  0  0  0  0  0  0  0  0  0
   -4.9736    1.4542    1.0544 H   0  0  0  0  0  0  0  0  0  0  0  0
   -8.6304    0.5055    0.4383 H   0  0  0  0  0  0  0  0  0  0  0  0
  -10.9286    1.3206    0.1901 H   0  0  0  0  0  0  0  0  0  0  0  0
  -11.3933    3.6190   -0.5863 H   0  0  0  0  0  0  0  0  0  0  0  0
   -9.5155    5.1572   -1.1321 H   0  0  0  0  0  0  0  0  0  0  0  0
   -4.0255    3.7480   -1.5855 H   0  0  0  0  0  0  0  0  0  0  0  0
   -2.9157    3.3480    2.7953 H   0  0  0  0  0  0  0  0  0  0  0  0
   -3.7206    3.8860    5.0635 H   0  0  0  0  0  0  0  0  0  0  0  0
   -6.7064    6.4956    3.3876 H   0  0  0  0  0  0  0  0  0  0  0  0
   -5.8968    5.9817    1.1206 H   0  0  0  0  0  0  0  0  0  0  0  0
    0.4492    4.8108   -2.3713 H   0  0  0  0  0  0  0  0  0  0  0  0
    2.5692    6.0299   -2.0594 H   0  0  0  0  0  0  0  0  0  0  0  0
    1.3361    7.2007    1.8957 H   0  0  0  0  0  0  0  0  0  0  0  0
   -0.7912    5.9912    1.6042 H   0  0  0  0  0  0  0  0  0  0  0  0
  1  2  1  0  0  0  0
  1 39  1  0  0  0  0
  1 40  1  0  0  0  0
  1 41  1  0  0  0  0
  2  3  2  0  0  0  0
  2  7  1  0  0  0  0
  3  4  1  0  0  0  0
  3 42  1  0  0  0  0
  4  5  2  0  0  0  0
  4 43  1  0  0  0  0
  5  6  1  0  0  0  0
  5  8  1  0  0  0  0
  6  7  2  0  0  0  0
  6 44  1  0  0  0  0
  7 45  1  0  0  0  0
  8  9  1  0  0  0  0
  9 10  1  0  0  0  0
  9 46  1  0  0  0  0
  9 47  1  0  0  0  0
 10 11  1  0  0  0  0
 10 48  1  0  0  0  0
 10 49  1  0  0  0  0
 11 12  1  0  0  0  0
 11 19  1  0  0  0  0
 12 13  2  0  0  0  0
 12 17  1  0  0  0  0
 13 14  1  0  0  0  0
 13 50  1  0  0  0  0
 14 15  2  0  0  0  0
 14 51  1  0  0  0  0
 15 16  1  0  0  0  0
 15 52  1  0  0  0  0
 16 17  2  0  0  0  0
 16 53  1  0  0  0  0
 17 18  1  0  0  0  0
 18 19  2  0  0  0  0
 19 20  1  0  0  0  0
 20 21  2  0  0  0  0
 20 54  1  0  0  0  0
 21 22  1  0  0  0  0
 21 29  1  0  0  0  0
 22 23  2  0  0  0  0
 22 27  1  0  0  0  0
 23 24  1  0  0  0  0
 23 55  1  0  0  0  0
 24 25  2  0  0  0  0
 24 56  1  0  0  0  0
 25 26  1  0  0  0  0
 25 28  1  0  0  0  0
 26 27  2  0  0  0  0
 26 57  1  0  0  0  0
 27 58  1  0  0  0  0
 29 30  1  0  0  0  0
 30 31  2  0  0  0  0
 30 32  1  0  0  0  0
 32 33  2  0  0  0  0
 32 37  1  0  0  0  0
 33 34  1  0  0  0  0
 33 59  1  0  0  0  0
 34 35  2  0  0  0  0
 34 60  1  0  0  0  0
 35 36  1  0  0  0  0
 35 38  1  0  0  0  0
 36 37  2  0  0  0  0
 36 61  1  0  0  0  0
 37 62  1  0  0  0  0
M  END
