
 OpenBabel10072619573D

 57 60  0  0  0  0  0  0  0  0999 V2000
   -4.2338    3.4917    2.2464 C   0  0  0  0  0  0  0  0  0  0  0  0
   -4.3769    2.1705    2.6622 C   0  0  0  0  0  0  0  0  0  0  0  0
   -3.9842    1.1248    1.8238 C   0  0  0  0  0  0  0  0  0  0  0  0
   -3.4624    1.3869    0.5490 C   0  0  0  0  0  0  0  0  0  0  0  0
   -3.2999    2.7242    0.1548 C   0  0  0  0  0  0  0  0  0  0  0  0
   -3.6889    3.7691    0.9953 C   0  0  0  0  0  0  0  0  0  0  0  0
   -3.0252    0.2835   -0.3905 C   0  0  0  0  0  0  0  0  0  0  0  0
   -3.8530   -1.0049   -0.3466 C   0  0  0  0  0  0  0  0  0  0  0  0
   -5.2653   -0.7749   -0.5860 N   0  0  0  0  0  0  0  0  0  0  0  0
   -6.2066   -1.6993   -0.2124 C   0  0  0  0  0  0  0  0  0  0  0  0
   -5.9395   -2.7722    0.3259 O   0  0  0  0  0  0  0  0  0  0  0  0
   -7.6284   -1.3978   -0.6023 C   0  0  0  0  0  0  0  0  0  0  0  0
   -8.0831   -0.1358   -0.4838 C   0  0  0  0  0  0  0  0  0  0  0  0
   -9.4609    0.2150   -0.5401 C   0  0  0  0  0  0  0  0  0  0  0  0
  -10.0550    1.3710   -1.0250 C   0  0  0  0  0  0  0  0  0  0  0  0
  -11.4544    1.2561   -0.8270 C   0  0  0  0  0  0  0  0  0  0  0  0
  -11.6661    0.0419   -0.2125 C   0  0  0  0  0  0  0  0  0  0  0  0
  -10.4632   -0.5723   -0.0236 O   0  0  0  0  0  0  0  0  0  0  0  0
  -12.8202   -0.7054    0.2858 C   0  0  0  0  0  0  0  0  0  0  0  0
  -14.1105   -0.6319   -0.2697 C   0  0  0  0  0  0  0  0  0  0  0  0
  -15.1683   -1.3738    0.2757 C   0  0  0  0  0  0  0  0  0  0  0  0
  -14.9495   -2.2023    1.3719 C   0  0  0  0  0  0  0  0  0  0  0  0
  -13.6844   -2.2982    1.9362 C   0  0  0  0  0  0  0  0  0  0  0  0
  -12.6320   -1.5559    1.3960 C   0  0  0  0  0  0  0  0  0  0  0  0
  -16.2488   -3.1157    2.0319 Cl  0  0  0  0  0  0  0  0  0  0  0  0
  -14.4904    0.3216   -1.6633 Cl  0  0  0  0  0  0  0  0  0  0  0  0
   -8.3602   -2.5237   -0.9392 N   0  0  0  0  0  0  0  0  0  0  0  0
   -9.2952   -2.5962   -1.9551 C   0  0  0  0  0  0  0  0  0  0  0  0
   -9.4926   -1.7242   -2.7960 O   0  0  0  0  0  0  0  0  0  0  0  0
  -10.0109   -3.8970   -2.0668 C   0  0  0  0  0  0  0  0  0  0  0  0
  -10.2522   -4.7020   -0.9454 C   0  0  0  0  0  0  0  0  0  0  0  0
  -10.9257   -5.9167   -1.0927 C   0  0  0  0  0  0  0  0  0  0  0  0
  -11.3634   -6.3268   -2.3527 C   0  0  0  0  0  0  0  0  0  0  0  0
  -11.1364   -5.5221   -3.4687 C   0  0  0  0  0  0  0  0  0  0  0  0
  -10.4673   -4.3058   -3.3260 C   0  0  0  0  0  0  0  0  0  0  0  0
   -4.5421    4.3039    2.8993 H   0  0  0  0  0  0  0  0  0  0  0  0
   -4.7926    1.9510    3.6425 H   0  0  0  0  0  0  0  0  0  0  0  0
   -4.1006    0.1051    2.1835 H   0  0  0  0  0  0  0  0  0  0  0  0
   -2.8691    2.9632   -0.8154 H   0  0  0  0  0  0  0  0  0  0  0  0
   -3.5640    4.7999    0.6738 H   0  0  0  0  0  0  0  0  0  0  0  0
   -1.9775    0.0441   -0.1716 H   0  0  0  0  0  0  0  0  0  0  0  0
   -3.0589    0.6647   -1.4199 H   0  0  0  0  0  0  0  0  0  0  0  0
   -3.7307   -1.5222    0.6115 H   0  0  0  0  0  0  0  0  0  0  0  0
   -3.5020   -1.6909   -1.1260 H   0  0  0  0  0  0  0  0  0  0  0  0
   -5.5301   -0.0376   -1.2271 H   0  0  0  0  0  0  0  0  0  0  0  0
   -7.4105    0.6706   -0.2068 H   0  0  0  0  0  0  0  0  0  0  0  0
   -9.5347    2.1977   -1.4883 H   0  0  0  0  0  0  0  0  0  0  0  0
  -12.2061    1.9836   -1.0965 H   0  0  0  0  0  0  0  0  0  0  0  0
  -16.1607   -1.3114   -0.1635 H   0  0  0  0  0  0  0  0  0  0  0  0
  -13.5044   -2.9442    2.7914 H   0  0  0  0  0  0  0  0  0  0  0  0
  -11.6472   -1.6414    1.8549 H   0  0  0  0  0  0  0  0  0  0  0  0
   -7.9238   -3.4019   -0.6659 H   0  0  0  0  0  0  0  0  0  0  0  0
   -9.9451   -4.3858    0.0482 H   0  0  0  0  0  0  0  0  0  0  0  0
  -11.1169   -6.5411   -0.2234 H   0  0  0  0  0  0  0  0  0  0  0  0
  -11.8876   -7.2730   -2.4647 H   0  0  0  0  0  0  0  0  0  0  0  0
  -11.4846   -5.8374   -4.4492 H   0  0  0  0  0  0  0  0  0  0  0  0
  -10.2985   -3.6775   -4.1984 H   0  0  0  0  0  0  0  0  0  0  0  0
  1  2  2  0  0  0  0
  1  6  1  0  0  0  0
  1 36  1  0  0  0  0
  2  3  1  0  0  0  0
  2 37  1  0  0  0  0
  3  4  2  0  0  0  0
  3 38  1  0  0  0  0
  4  5  1  0  0  0  0
  4  7  1  0  0  0  0
  5  6  2  0  0  0  0
  5 39  1  0  0  0  0
  6 40  1  0  0  0  0
  7  8  1  0  0  0  0
  7 41  1  0  0  0  0
  7 42  1  0  0  0  0
  8  9  1  0  0  0  0
  8 43  1  0  0  0  0
  8 44  1  0  0  0  0
  9 10  1  0  0  0  0
  9 45  1  0  0  0  0
 10 11  2  0  0  0  0
 10 12  1  0  0  0  0
 12 13  2  0  0  0  0
 12 27  1  0  0  0  0
 13 14  1  0  0  0  0
 13 46  1  0  0  0  0
 14 15  2  0  0  0  0
 14 18  1  0  0  0  0
 15 16  1  0  0  0  0
 15 47  1  0  0  0  0
 16 17  2  0  0  0  0
 16 48  1  0  0  0  0
 17 18  1  0  0  0  0
 17 19  1  0  0  0  0
 19 20  2  0  0  0  0
 19 24  1  0  0  0  0
 20 21  1  0  0  0  0
 20 26  1  0  0  0  0
 21 22  2  0  0  0  0
 21 49  1  0  0  0  0
 22 23  1  0  0  0  0
 22 25  1  0  0  0  0
 23 24  2  0  0  0  0
 23 50  1  0  0  0  0
 24 51  1  0  0  0  0
 27 28  1  0  0  0  0
 27 52  1  0  0  0  0
 28 29  2  0  0  0  0
 28 30  1  0  0  0  0
 30 31  2  0  0  0  0
 30 35  1  0  0  0  0
 31 32  1  0  0  0  0
 31 53  1  0  0  0  0
 32 33  2  0  0  0  0
 32 54  1  0  0  0  0
 33 34  1  0  0  0  0
 33 55  1  0  0  0  0
 34 35  2  0  0  0  0
 34 56  1  0  0  0  0
 35 57  1  0  0  0  0
M  END
