
 OpenBabel10072619443D

 29 28  0  0  0  0  0  0  0  0999 V2000
    1.6905   -0.4420    1.8727 C   0  0  0  0  0  0  0  0  0  0  0  0
    3.0341   -0.3164    1.1982 C   0  0  0  0  0  0  0  0  0  0  0  0
    3.7327    0.7775    1.1226 N   0  0  0  0  0  0  0  0  0  0  0  0
    3.2537    1.9129    1.7019 N   0  0  0  0  0  0  0  0  0  0  0  0
    3.9771    3.1091    1.6842 C   0  0  0  0  0  0  0  0  0  0  0  0
    5.4895    3.2693    0.9859 S   0  0  0  0  0  0  0  0  0  0  0  0
    3.2517    4.1086    2.3243 N   0  0  0  0  0  0  0  0  0  0  0  0
    3.5795    5.5296    2.5984 C   0  0  0  0  0  0  0  0  0  0  0  0
    3.7428    6.3475    1.3086 C   0  0  0  0  0  0  0  0  0  0  0  0
    2.3814    6.1302    3.3675 C   0  0  0  0  0  0  0  0  0  0  0  0
    4.8206    5.6629    3.4942 C   0  0  0  0  0  0  0  0  0  0  0  0
    3.5906   -1.5489    0.5287 C   0  0  0  0  0  0  0  0  0  0  0  0
    1.7612   -0.1178    2.9153 H   0  0  0  0  0  0  0  0  0  0  0  0
    1.3556   -1.4831    1.8584 H   0  0  0  0  0  0  0  0  0  0  0  0
    0.9529    0.1655    1.3392 H   0  0  0  0  0  0  0  0  0  0  0  0
    2.4099    1.8586    2.2554 H   0  0  0  0  0  0  0  0  0  0  0  0
    2.2983    3.8578    2.5372 H   0  0  0  0  0  0  0  0  0  0  0  0
    2.8737    6.2205    0.6534 H   0  0  0  0  0  0  0  0  0  0  0  0
    4.6297    6.0629    0.7370 H   0  0  0  0  0  0  0  0  0  0  0  0
    3.8377    7.4166    1.5329 H   0  0  0  0  0  0  0  0  0  0  0  0
    1.4596    6.0631    2.7764 H   0  0  0  0  0  0  0  0  0  0  0  0
    2.5505    7.1868    3.6047 H   0  0  0  0  0  0  0  0  0  0  0  0
    2.2067    5.5952    4.3080 H   0  0  0  0  0  0  0  0  0  0  0  0
    5.7435    5.3825    2.9799 H   0  0  0  0  0  0  0  0  0  0  0  0
    4.7340    5.0258    4.3818 H   0  0  0  0  0  0  0  0  0  0  0  0
    4.9502    6.6970    3.8327 H   0  0  0  0  0  0  0  0  0  0  0  0
    3.6240   -2.3635    1.2574 H   0  0  0  0  0  0  0  0  0  0  0  0
    4.6029   -1.3689    0.1542 H   0  0  0  0  0  0  0  0  0  0  0  0
    2.9417   -1.8301   -0.3063 H   0  0  0  0  0  0  0  0  0  0  0  0
  1  2  1  0  0  0  0
  1 13  1  0  0  0  0
  1 14  1  0  0  0  0
  1 15  1  0  0  0  0
  2  3  2  0  0  0  0
  2 12  1  0  0  0  0
  3  4  1  0  0  0  0
  4  5  1  0  0  0  0
  4 16  1  0  0  0  0
  5  6  2  0  0  0  0
  5  7  1  0  0  0  0
  7  8  1  0  0  0  0
  7 17  1  0  0  0  0
  8  9  1  0  0  0  0
  8 10  1  0  0  0  0
  8 11  1  0  0  0  0
  9 18  1  0  0  0  0
  9 19  1  0  0  0  0
  9 20  1  0  0  0  0
 10 21  1  0  0  0  0
 10 22  1  0  0  0  0
 10 23  1  0  0  0  0
 11 24  1  0  0  0  0
 11 25  1  0  0  0  0
 11 26  1  0  0  0  0
 12 27  1  0  0  0  0
 12 28  1  0  0  0  0
 12 29  1  0  0  0  0
M  END
