
 OpenBabel10072620173D

 47 49  0  0  0  0  0  0  0  0999 V2000
    2.4270    0.5375    1.0043 C   0  0  0  0  0  0  0  0  0  0  0  0
    1.9014    0.3877   -0.3097 O   0  0  0  0  0  0  0  0  0  0  0  0
    2.7631   -0.1230   -1.2467 C   0  0  0  0  0  0  0  0  0  0  0  0
    2.5524    0.2622   -2.5807 C   0  0  0  0  0  0  0  0  0  0  0  0
    1.4833    1.1879   -2.9745 C   0  0  0  0  0  0  0  0  0  0  0  0
    1.3365    1.5986   -4.2451 C   0  0  0  0  0  0  0  0  0  0  0  0
    2.2484    1.0741   -5.3055 C   0  0  0  0  0  0  0  0  0  0  0  0
    2.1388    1.4282   -6.4738 O   0  0  0  0  0  0  0  0  0  0  0  0
    3.2045    0.1815   -4.9087 N   0  0  0  0  0  0  0  0  0  0  0  0
    3.3979   -0.2355   -3.5808 C   0  0  0  0  0  0  0  0  0  0  0  0
    4.4322   -1.1343   -3.2773 C   0  0  0  0  0  0  0  0  0  0  0  0
    4.6182   -1.5270   -1.9510 C   0  0  0  0  0  0  0  0  0  0  0  0
    3.7908   -1.0216   -0.9407 C   0  0  0  0  0  0  0  0  0  0  0  0
    5.1898   -1.5563   -4.3398 O   0  0  0  0  0  0  0  0  0  0  0  0
    6.1879   -2.5329   -4.0703 C   0  0  0  0  0  0  0  0  0  0  0  0
    0.2529    2.5535   -4.6639 C   0  0  0  0  0  0  0  0  0  0  0  0
    0.7015    4.0136   -4.5464 C   0  0  0  0  0  0  0  0  0  0  0  0
   -0.4240    4.9068   -4.8637 N   0  0  0  0  0  0  0  0  0  0  0  0
   -0.2393    6.5531   -4.5723 S   0  0  0  0  0  0  0  0  0  0  0  0
   -1.5548    7.1369   -4.7098 O   0  0  0  0  0  0  0  0  0  0  0  0
    0.5369    6.7102   -3.3623 O   0  0  0  0  0  0  0  0  0  0  0  0
    0.7287    7.0779   -5.9593 C   0  0  0  0  0  0  0  0  0  0  0  0
    0.1776    7.0040   -7.2428 C   0  0  0  0  0  0  0  0  0  0  0  0
    0.9376    7.4112   -8.3397 C   0  0  0  0  0  0  0  0  0  0  0  0
    2.2331    7.8922   -8.1430 C   0  0  0  0  0  0  0  0  0  0  0  0
    2.7795    7.9679   -6.8602 C   0  0  0  0  0  0  0  0  0  0  0  0
    2.0244    7.5622   -5.7595 C   0  0  0  0  0  0  0  0  0  0  0  0
    3.2585    8.4527   -9.6288 Br  0  0  0  0  0  0  0  0  0  0  0  0
    1.7426    1.1861    1.5597 H   0  0  0  0  0  0  0  0  0  0  0  0
    3.4112    1.0198    0.9923 H   0  0  0  0  0  0  0  0  0  0  0  0
    2.4667   -0.4281    1.5183 H   0  0  0  0  0  0  0  0  0  0  0  0
    0.8132    1.5383   -2.1958 H   0  0  0  0  0  0  0  0  0  0  0  0
    3.8192   -0.1944   -5.6209 H   0  0  0  0  0  0  0  0  0  0  0  0
    5.3987   -2.2255   -1.6652 H   0  0  0  0  0  0  0  0  0  0  0  0
    3.9576   -1.3636    0.0766 H   0  0  0  0  0  0  0  0  0  0  0  0
    5.7472   -3.4492   -3.6631 H   0  0  0  0  0  0  0  0  0  0  0  0
    6.9598   -2.1359   -3.4027 H   0  0  0  0  0  0  0  0  0  0  0  0
    6.6679   -2.7886   -5.0192 H   0  0  0  0  0  0  0  0  0  0  0  0
   -0.6288    2.3958   -4.0283 H   0  0  0  0  0  0  0  0  0  0  0  0
   -0.0889    2.3366   -5.6832 H   0  0  0  0  0  0  0  0  0  0  0  0
    1.5374    4.2193   -5.2246 H   0  0  0  0  0  0  0  0  0  0  0  0
    1.0352    4.2000   -3.5191 H   0  0  0  0  0  0  0  0  0  0  0  0
   -1.3735    4.5980   -4.6566 H   0  0  0  0  0  0  0  0  0  0  0  0
   -0.8333    6.6301   -7.3903 H   0  0  0  0  0  0  0  0  0  0  0  0
    0.5142    7.3501   -9.3389 H   0  0  0  0  0  0  0  0  0  0  0  0
    3.7888    8.3405   -6.7075 H   0  0  0  0  0  0  0  0  0  0  0  0
    2.4477    7.6256   -4.7592 H   0  0  0  0  0  0  0  0  0  0  0  0
  1  2  1  0  0  0  0
  1 29  1  0  0  0  0
  1 30  1  0  0  0  0
  1 31  1  0  0  0  0
  2  3  1  0  0  0  0
  3  4  2  0  0  0  0
  3 13  1  0  0  0  0
  4  5  1  0  0  0  0
  4 10  1  0  0  0  0
  5  6  2  0  0  0  0
  5 32  1  0  0  0  0
  6  7  1  0  0  0  0
  6 16  1  0  0  0  0
  7  8  2  0  0  0  0
  7  9  1  0  0  0  0
  9 10  1  0  0  0  0
  9 33  1  0  0  0  0
 10 11  2  0  0  0  0
 11 12  1  0  0  0  0
 11 14  1  0  0  0  0
 12 13  2  0  0  0  0
 12 34  1  0  0  0  0
 13 35  1  0  0  0  0
 14 15  1  0  0  0  0
 15 36  1  0  0  0  0
 15 37  1  0  0  0  0
 15 38  1  0  0  0  0
 16 17  1  0  0  0  0
 16 39  1  0  0  0  0
 16 40  1  0  0  0  0
 17 18  1  0  0  0  0
 17 41  1  0  0  0  0
 17 42  1  0  0  0  0
 18 19  1  0  0  0  0
 18 43  1  0  0  0  0
 19 20  2  0  0  0  0
 19 21  2  0  0  0  0
 19 22  1  0  0  0  0
 22 23  2  0  0  0  0
 22 27  1  0  0  0  0
 23 24  1  0  0  0  0
 23 44  1  0  0  0  0
 24 25  2  0  0  0  0
 24 45  1  0  0  0  0
 25 26  1  0  0  0  0
 25 28  1  0  0  0  0
 26 27  2  0  0  0  0
 26 46  1  0  0  0  0
 27 47  1  0  0  0  0
M  END
