
 OpenBabel10072616333D

 62 65  0  0  0  0  0  0  0  0999 V2000
    2.9017   -0.1742    1.0339 C   0  0  0  0  0  0  0  0  0  0  0  0
    1.4489   -0.1328    0.6652 C   0  0  0  0  0  0  0  0  0  0  0  0
    0.7487    1.0817    0.6245 C   0  0  0  0  0  0  0  0  0  0  0  0
   -0.6141    1.1459    0.2730 C   0  0  0  0  0  0  0  0  0  0  0  0
   -1.2925   -0.0555   -0.0199 C   0  0  0  0  0  0  0  0  0  0  0  0
   -0.5869   -1.2738    0.0404 C   0  0  0  0  0  0  0  0  0  0  0  0
    0.7664   -1.3123    0.3753 C   0  0  0  0  0  0  0  0  0  0  0  0
   -2.7481   -0.1277   -0.4041 C   0  0  0  0  0  0  0  0  0  0  0  0
   -1.3140    2.4477    0.3060 C   0  0  0  0  0  0  0  0  0  0  0  0
   -0.7812    3.6339   -0.0379 C   0  0  0  0  0  0  0  0  0  0  0  0
   -1.5005    4.9211    0.0231 C   0  0  0  0  0  0  0  0  0  0  0  0
   -2.5857    5.1424    0.8743 C   0  0  0  0  0  0  0  0  0  0  0  0
   -3.2308    6.3861    0.9113 C   0  0  0  0  0  0  0  0  0  0  0  0
   -2.7966    7.4701    0.1314 C   0  0  0  0  0  0  0  0  0  0  0  0
   -1.6837    7.2453   -0.6972 C   0  0  0  0  0  0  0  0  0  0  0  0
   -1.0514    5.9906   -0.7572 C   0  0  0  0  0  0  0  0  0  0  0  0
   -3.4735    8.7898    0.2034 C   0  0  0  0  0  0  0  0  0  0  0  0
   -4.0307    9.2586    1.4044 C   0  0  0  0  0  0  0  0  0  0  0  0
   -4.6939   10.4907    1.4784 C   0  0  0  0  0  0  0  0  0  0  0  0
   -4.7780   11.3307    0.3659 C   0  0  0  0  0  0  0  0  0  0  0  0
   -4.2264   10.8828   -0.8367 C   0  0  0  0  0  0  0  0  0  0  0  0
   -3.5889    9.6318   -0.9147 C   0  0  0  0  0  0  0  0  0  0  0  0
   -5.4509   12.6393    0.4285 C   0  0  0  0  0  0  0  0  0  0  0  0
   -5.4920   13.4018    1.5330 C   0  0  0  0  0  0  0  0  0  0  0  0
   -6.1987   14.6856    1.5699 C   0  0  0  0  0  0  0  0  0  0  0  0
   -7.5673   14.7793    1.8787 C   0  0  0  0  0  0  0  0  0  0  0  0
   -8.1720   16.0468    1.8822 C   0  0  0  0  0  0  0  0  0  0  0  0
   -7.4284   17.1978    1.6091 C   0  0  0  0  0  0  0  0  0  0  0  0
   -6.0639   17.1090    1.3276 C   0  0  0  0  0  0  0  0  0  0  0  0
   -5.4584   15.8474    1.3058 C   0  0  0  0  0  0  0  0  0  0  0  0
   -5.2468   18.3366    1.0579 C   0  0  0  0  0  0  0  0  0  0  0  0
   -8.4273   13.5767    2.1592 C   0  0  0  0  0  0  0  0  0  0  0  0
    3.2945    0.8298    1.2240 H   0  0  0  0  0  0  0  0  0  0  0  0
    3.4896   -0.6130    0.2210 H   0  0  0  0  0  0  0  0  0  0  0  0
    3.0438   -0.7683    1.9422 H   0  0  0  0  0  0  0  0  0  0  0  0
    1.2762    1.9943    0.8905 H   0  0  0  0  0  0  0  0  0  0  0  0
   -1.0975   -2.2104   -0.1754 H   0  0  0  0  0  0  0  0  0  0  0  0
    1.2831   -2.2685    0.4092 H   0  0  0  0  0  0  0  0  0  0  0  0
   -3.2430    0.8429   -0.4668 H   0  0  0  0  0  0  0  0  0  0  0  0
   -3.2992   -0.7270    0.3270 H   0  0  0  0  0  0  0  0  0  0  0  0
   -2.8573   -0.5925   -1.3885 H   0  0  0  0  0  0  0  0  0  0  0  0
   -2.3460    2.4077    0.6358 H   0  0  0  0  0  0  0  0  0  0  0  0
    0.2404    3.6927   -0.4006 H   0  0  0  0  0  0  0  0  0  0  0  0
   -2.9588    4.3594    1.5287 H   0  0  0  0  0  0  0  0  0  0  0  0
   -4.0973    6.4821    1.5621 H   0  0  0  0  0  0  0  0  0  0  0  0
   -1.2765    8.0470   -1.3090 H   0  0  0  0  0  0  0  0  0  0  0  0
   -0.2075    5.8638   -1.4325 H   0  0  0  0  0  0  0  0  0  0  0  0
   -3.9614    8.6690    2.3155 H   0  0  0  0  0  0  0  0  0  0  0  0
   -5.1405   10.7765    2.4270 H   0  0  0  0  0  0  0  0  0  0  0  0
   -4.2731   11.4992   -1.7322 H   0  0  0  0  0  0  0  0  0  0  0  0
   -3.1898    9.3191   -1.8769 H   0  0  0  0  0  0  0  0  0  0  0  0
   -5.9208   12.9873   -0.4873 H   0  0  0  0  0  0  0  0  0  0  0  0
   -5.0099   13.1182    2.4623 H   0  0  0  0  0  0  0  0  0  0  0  0
   -9.2340   16.1428    2.0960 H   0  0  0  0  0  0  0  0  0  0  0  0
   -7.9258   18.1642    1.6241 H   0  0  0  0  0  0  0  0  0  0  0  0
   -4.3962   15.7701    1.0788 H   0  0  0  0  0  0  0  0  0  0  0  0
   -5.8598   19.2429    1.0928 H   0  0  0  0  0  0  0  0  0  0  0  0
   -4.7912   18.2768    0.0645 H   0  0  0  0  0  0  0  0  0  0  0  0
   -4.4583   18.4365    1.8108 H   0  0  0  0  0  0  0  0  0  0  0  0
   -7.8447   12.6842    2.4050 H   0  0  0  0  0  0  0  0  0  0  0  0
   -9.0460   13.3510    1.2856 H   0  0  0  0  0  0  0  0  0  0  0  0
   -9.0816   13.7656    3.0170 H   0  0  0  0  0  0  0  0  0  0  0  0
  1  2  1  0  0  0  0
  1 33  1  0  0  0  0
  1 34  1  0  0  0  0
  1 35  1  0  0  0  0
  2  3  2  0  0  0  0
  2  7  1  0  0  0  0
  3  4  1  0  0  0  0
  3 36  1  0  0  0  0
  4  5  2  0  0  0  0
  4  9  1  0  0  0  0
  5  6  1  0  0  0  0
  5  8  1  0  0  0  0
  6  7  2  0  0  0  0
  6 37  1  0  0  0  0
  7 38  1  0  0  0  0
  8 39  1  0  0  0  0
  8 40  1  0  0  0  0
  8 41  1  0  0  0  0
  9 10  2  0  0  0  0
  9 42  1  0  0  0  0
 10 11  1  0  0  0  0
 10 43  1  0  0  0  0
 11 12  2  0  0  0  0
 11 16  1  0  0  0  0
 12 13  1  0  0  0  0
 12 44  1  0  0  0  0
 13 14  2  0  0  0  0
 13 45  1  0  0  0  0
 14 15  1  0  0  0  0
 14 17  1  0  0  0  0
 15 16  2  0  0  0  0
 15 46  1  0  0  0  0
 16 47  1  0  0  0  0
 17 18  2  0  0  0  0
 17 22  1  0  0  0  0
 18 19  1  0  0  0  0
 18 48  1  0  0  0  0
 19 20  2  0  0  0  0
 19 49  1  0  0  0  0
 20 21  1  0  0  0  0
 20 23  1  0  0  0  0
 21 22  2  0  0  0  0
 21 50  1  0  0  0  0
 22 51  1  0  0  0  0
 23 24  2  0  0  0  0
 23 52  1  0  0  0  0
 24 25  1  0  0  0  0
 24 53  1  0  0  0  0
 25 26  2  0  0  0  0
 25 30  1  0  0  0  0
 26 27  1  0  0  0  0
 26 32  1  0  0  0  0
 27 28  2  0  0  0  0
 27 54  1  0  0  0  0
 28 29  1  0  0  0  0
 28 55  1  0  0  0  0
 29 30  2  0  0  0  0
 29 31  1  0  0  0  0
 30 56  1  0  0  0  0
 31 57  1  0  0  0  0
 31 58  1  0  0  0  0
 31 59  1  0  0  0  0
 32 60  1  0  0  0  0
 32 61  1  0  0  0  0
 32 62  1  0  0  0  0
M  END
