
 OpenBabel10072620213D

 44 45  0  0  0  0  0  0  0  0999 V2000
    3.3423    0.8180   -0.7962 C   0  0  0  0  0  0  0  0  0  0  0  0
    2.1222    0.0253   -0.2807 C   0  0  0  0  0  0  0  0  0  0  0  0
    1.2720    0.9392    0.6305 C   0  0  0  0  0  0  0  0  0  0  0  0
    1.2542   -0.3286   -1.5112 C   0  0  0  0  0  0  0  0  0  0  0  0
    2.6024   -1.2033    0.5189 C   0  0  0  0  0  0  0  0  0  0  0  0
    3.3422   -1.0248    1.7085 C   0  0  0  0  0  0  0  0  0  0  0  0
    3.7621   -2.1076    2.4904 C   0  0  0  0  0  0  0  0  0  0  0  0
    3.4939   -3.4141    2.0534 C   0  0  0  0  0  0  0  0  0  0  0  0
    2.7935   -3.6173    0.8661 C   0  0  0  0  0  0  0  0  0  0  0  0
    2.3459   -2.5221    0.1128 C   0  0  0  0  0  0  0  0  0  0  0  0
    3.9817   -4.4307    2.8435 O   0  0  0  0  0  0  0  0  0  0  0  0
    3.1863   -5.6128    2.8572 C   0  0  0  0  0  0  0  0  0  0  0  0
    4.5000   -1.9719    3.6909 N   0  0  0  0  0  0  0  0  0  0  0  0
    4.5498   -0.9427    4.6301 C   0  0  0  0  0  0  0  0  0  0  0  0
    3.4470    0.3068    4.7790 S   0  0  0  0  0  0  0  0  0  0  0  0
    5.6916   -1.1272    5.4144 N   0  0  0  0  0  0  0  0  0  0  0  0
    6.0755   -0.5452    6.6431 C   0  0  0  0  0  0  0  0  0  0  0  0
    5.1760   -0.0869    7.6052 C   0  0  0  0  0  0  0  0  0  0  0  0
    5.6338    0.4556    8.8143 C   0  0  0  0  0  0  0  0  0  0  0  0
    7.0051    0.5324    9.0728 C   0  0  0  0  0  0  0  0  0  0  0  0
    7.9095    0.0518    8.1252 C   0  0  0  0  0  0  0  0  0  0  0  0
    7.4468   -0.4972    6.9254 C   0  0  0  0  0  0  0  0  0  0  0  0
    7.6450    1.1883   10.5366 Cl  0  0  0  0  0  0  0  0  0  0  0  0
    4.4513    0.9916    9.9557 Cl  0  0  0  0  0  0  0  0  0  0  0  0
    3.0308    1.6846   -1.3921 H   0  0  0  0  0  0  0  0  0  0  0  0
    3.9781    0.1887   -1.4302 H   0  0  0  0  0  0  0  0  0  0  0  0
    3.9648    1.1976    0.0215 H   0  0  0  0  0  0  0  0  0  0  0  0
    0.8971    1.8105    0.0808 H   0  0  0  0  0  0  0  0  0  0  0  0
    1.8428    1.3234    1.4832 H   0  0  0  0  0  0  0  0  0  0  0  0
    0.4063    0.3978    1.0300 H   0  0  0  0  0  0  0  0  0  0  0  0
    0.9287    0.5757   -2.0407 H   0  0  0  0  0  0  0  0  0  0  0  0
    0.3501   -0.8765   -1.2211 H   0  0  0  0  0  0  0  0  0  0  0  0
    1.8083   -0.9399   -2.2337 H   0  0  0  0  0  0  0  0  0  0  0  0
    3.6148   -0.0180    2.0066 H   0  0  0  0  0  0  0  0  0  0  0  0
    2.5832   -4.6155    0.4949 H   0  0  0  0  0  0  0  0  0  0  0  0
    1.7982   -2.7337   -0.8014 H   0  0  0  0  0  0  0  0  0  0  0  0
    3.4728   -6.1867    3.7435 H   0  0  0  0  0  0  0  0  0  0  0  0
    3.3871   -6.2305    1.9765 H   0  0  0  0  0  0  0  0  0  0  0  0
    2.1170   -5.3867    2.9450 H   0  0  0  0  0  0  0  0  0  0  0  0
    4.8456   -2.8662    4.0304 H   0  0  0  0  0  0  0  0  0  0  0  0
    6.4340   -1.5863    4.9002 H   0  0  0  0  0  0  0  0  0  0  0  0
    4.1038   -0.1792    7.4559 H   0  0  0  0  0  0  0  0  0  0  0  0
    8.9789    0.0986    8.3171 H   0  0  0  0  0  0  0  0  0  0  0  0
    8.1778   -0.8629    6.2081 H   0  0  0  0  0  0  0  0  0  0  0  0
  1  2  1  0  0  0  0
  1 25  1  0  0  0  0
  1 26  1  0  0  0  0
  1 27  1  0  0  0  0
  2  3  1  0  0  0  0
  2  4  1  0  0  0  0
  2  5  1  0  0  0  0
  3 28  1  0  0  0  0
  3 29  1  0  0  0  0
  3 30  1  0  0  0  0
  4 31  1  0  0  0  0
  4 32  1  0  0  0  0
  4 33  1  0  0  0  0
  5  6  2  0  0  0  0
  5 10  1  0  0  0  0
  6  7  1  0  0  0  0
  6 34  1  0  0  0  0
  7  8  2  0  0  0  0
  7 13  1  0  0  0  0
  8  9  1  0  0  0  0
  8 11  1  0  0  0  0
  9 10  2  0  0  0  0
  9 35  1  0  0  0  0
 10 36  1  0  0  0  0
 11 12  1  0  0  0  0
 12 37  1  0  0  0  0
 12 38  1  0  0  0  0
 12 39  1  0  0  0  0
 13 14  1  0  0  0  0
 13 40  1  0  0  0  0
 14 15  2  0  0  0  0
 14 16  1  0  0  0  0
 16 17  1  0  0  0  0
 16 41  1  0  0  0  0
 17 18  2  0  0  0  0
 17 22  1  0  0  0  0
 18 19  1  0  0  0  0
 18 42  1  0  0  0  0
 19 20  2  0  0  0  0
 19 24  1  0  0  0  0
 20 21  1  0  0  0  0
 20 23  1  0  0  0  0
 21 22  2  0  0  0  0
 21 43  1  0  0  0  0
 22 44  1  0  0  0  0
M  END
