
 OpenBabel10072619483D

 32 32  0  0  0  0  0  0  0  0999 V2000
    3.1132    1.9851    2.6698 C   0  0  0  0  0  0  0  0  0  0  0  0
    2.7867    0.5943    2.3375 N   0  0  0  0  0  0  0  0  0  0  0  0
    1.3394    0.3870    2.4480 C   0  0  0  0  0  0  0  0  0  0  0  0
    3.2353    0.2508    0.9657 C   0  0  0  0  0  0  0  0  0  0  0  0
    4.7671    0.2028    0.8214 C   0  0  0  0  0  0  0  0  0  0  0  0
    5.3692   -0.5736    1.9035 N   0  0  0  0  0  0  0  0  0  0  0  0
    6.7191   -0.8511    2.0557 C   0  0  0  0  0  0  0  0  0  0  0  0
    7.8637   -0.5099    0.8854 S   0  0  0  0  0  0  0  0  0  0  0  0
    6.9130   -1.5029    3.2659 N   0  0  0  0  0  0  0  0  0  0  0  0
    8.0773   -1.7122    4.0356 C   0  0  0  0  0  0  0  0  0  0  0  0
    9.2364   -0.9434    3.9236 C   0  0  0  0  0  0  0  0  0  0  0  0
   10.3376   -1.1928    4.7472 C   0  0  0  0  0  0  0  0  0  0  0  0
   10.2847   -2.2033    5.7039 C   0  0  0  0  0  0  0  0  0  0  0  0
    9.1236   -2.9581    5.8474 C   0  0  0  0  0  0  0  0  0  0  0  0
    8.0236   -2.7077    5.0224 C   0  0  0  0  0  0  0  0  0  0  0  0
    2.7147    2.2526    3.6549 H   0  0  0  0  0  0  0  0  0  0  0  0
    2.7124    2.6922    1.9347 H   0  0  0  0  0  0  0  0  0  0  0  0
    4.1962    2.1295    2.7349 H   0  0  0  0  0  0  0  0  0  0  0  0
    0.9951    0.6039    3.4654 H   0  0  0  0  0  0  0  0  0  0  0  0
    1.0864   -0.6610    2.2535 H   0  0  0  0  0  0  0  0  0  0  0  0
    0.7745    1.0144    1.7490 H   0  0  0  0  0  0  0  0  0  0  0  0
    2.8150    0.9400    0.2213 H   0  0  0  0  0  0  0  0  0  0  0  0
    2.8625   -0.7534    0.7235 H   0  0  0  0  0  0  0  0  0  0  0  0
    5.1938    1.2112    0.8458 H   0  0  0  0  0  0  0  0  0  0  0  0
    5.0358   -0.2576   -0.1343 H   0  0  0  0  0  0  0  0  0  0  0  0
    4.8344   -0.5082    2.7633 H   0  0  0  0  0  0  0  0  0  0  0  0
    6.0986   -2.0222    3.5672 H   0  0  0  0  0  0  0  0  0  0  0  0
    9.3083   -0.1151    3.2269 H   0  0  0  0  0  0  0  0  0  0  0  0
   11.2339   -0.5865    4.6417 H   0  0  0  0  0  0  0  0  0  0  0  0
   11.1432   -2.3941    6.3415 H   0  0  0  0  0  0  0  0  0  0  0  0
    9.0738   -3.7420    6.5989 H   0  0  0  0  0  0  0  0  0  0  0  0
    7.1297   -3.3122    5.1544 H   0  0  0  0  0  0  0  0  0  0  0  0
  1  2  1  0  0  0  0
  1 16  1  0  0  0  0
  1 17  1  0  0  0  0
  1 18  1  0  0  0  0
  2  3  1  0  0  0  0
  2  4  1  0  0  0  0
  3 19  1  0  0  0  0
  3 20  1  0  0  0  0
  3 21  1  0  0  0  0
  4  5  1  0  0  0  0
  4 22  1  0  0  0  0
  4 23  1  0  0  0  0
  5  6  1  0  0  0  0
  5 24  1  0  0  0  0
  5 25  1  0  0  0  0
  6  7  1  0  0  0  0
  6 26  1  0  0  0  0
  7  8  2  0  0  0  0
  7  9  1  0  0  0  0
  9 10  1  0  0  0  0
  9 27  1  0  0  0  0
 10 11  2  0  0  0  0
 10 15  1  0  0  0  0
 11 12  1  0  0  0  0
 11 28  1  0  0  0  0
 12 13  2  0  0  0  0
 12 29  1  0  0  0  0
 13 14  1  0  0  0  0
 13 30  1  0  0  0  0
 14 15  2  0  0  0  0
 14 31  1  0  0  0  0
 15 32  1  0  0  0  0
M  END
