
 OpenBabel10072619583D

 94 96  0  0  1  0  0  0  0  0999 V2000
    0.0075    1.2388    0.5108 C   0  0  0  0  0  0  0  0  0  0  0  0
   -1.1948    0.3369    0.7564 C   0  0  1  0  0  0  0  0  0  0  0  0
   -1.3995   -0.7125   -0.3581 C   0  0  2  0  0  0  0  0  0  0  0  0
   -0.1116   -1.5711   -0.4702 C   0  0  1  0  0  0  0  0  0  0  0  0
    1.2445   -0.8043   -0.4962 C   0  0  2  0  0  0  0  0  0  0  0  0
    1.3380    0.5266    0.2878 C   0  0  2  0  0  0  0  0  0  0  0  0
    1.9483    0.2972    1.6139 N   0  0  0  0  0  0  0  0  0  0  0  0
    2.9862    0.9540    1.9728 C   0  0  0  0  0  0  0  0  0  0  0  0
    3.7414    1.8554    1.2971 N   0  0  0  0  0  0  0  0  0  0  0  0
    3.4777    0.8158    3.2286 N   0  0  0  0  0  0  0  0  0  0  0  0
    1.7993   -0.7139   -1.8220 O   0  0  0  0  0  0  0  0  0  0  0  0
    1.2988    0.2992   -2.6885 C   0  0  2  0  0  0  0  0  0  0  0  0
    1.0606   -0.3458   -4.0642 C   0  0  2  0  0  0  0  0  0  0  0  0
    0.7416    0.6941   -5.1568 C   0  0  1  0  0  0  0  0  0  0  0  0
    1.6490    1.9380   -5.0744 C   0  0  2  0  0  0  0  0  0  0  0  0
    1.8669    2.4008   -3.6191 C   0  0  1  0  0  0  0  0  0  0  0  0
    2.2716    1.3378   -2.7619 O   0  0  0  0  0  0  0  0  0  0  0  0
    2.9562    3.4865   -3.5304 C   0  0  0  0  0  0  0  0  0  0  0  0
    2.7902    4.4915   -4.5286 O   0  0  0  0  0  0  0  0  0  0  0  0
    1.0329    3.0121   -5.8216 O   0  0  0  0  0  0  0  0  0  0  0  0
    0.9415    0.0093   -6.4555 N   0  0  0  0  0  0  0  0  0  0  0  0
    0.3884    0.4527   -7.5200 C   0  0  0  0  0  0  0  0  0  0  0  0
   -0.3676    1.5538   -7.6915 N   0  0  0  0  0  0  0  0  0  0  0  0
    0.5439   -0.2467   -8.6648 N   0  0  0  0  0  0  0  0  0  0  0  0
   -0.0139   -1.3045   -3.9807 O   0  0  0  0  0  0  0  0  0  0  0  0
   -0.1023   -2.4922    0.6467 O   0  0  0  0  0  0  0  0  0  0  0  0
   -1.7302   -0.1434   -1.6314 O   0  0  0  0  0  0  0  0  0  0  0  0
   -3.1149    0.1143   -1.9620 C   0  0  2  0  0  0  0  0  0  0  0  0
   -3.8987    1.1897   -1.1525 C   0  0  1  0  0  0  0  0  0  0  0  0
   -4.5687    0.5585    0.0632 C   0  0  0  0  0  0  0  0  0  0  0  0
   -5.5242   -0.5139   -0.4250 C   0  0  1  0  0  0  0  0  0  0  0  0
   -4.7712   -1.5743   -1.2605 C   0  0  2  0  0  0  0  0  0  0  0  0
   -3.8826   -1.0569   -2.2676 O   0  0  0  0  0  0  0  0  0  0  0  0
   -5.7771   -2.5378   -1.9387 C   0  0  0  0  0  0  0  0  0  0  0  0
   -6.8502   -1.8177   -2.6422 N   0  0  0  0  0  0  0  0  0  0  0  0
   -6.6532   -1.3837   -3.8281 C   0  0  0  0  0  0  0  0  0  0  0  0
   -5.5497   -1.4599   -4.5886 N   0  0  0  0  0  0  0  0  0  0  0  0
   -7.6547   -0.7342   -4.4592 N   0  0  0  0  0  0  0  0  0  0  0  0
   -6.1758   -1.0841    0.7127 O   0  0  0  0  0  0  0  0  0  0  0  0
   -3.0274    2.3175   -0.8160 N   0  0  0  0  0  0  0  0  0  0  0  0
   -3.5003    3.4413   -0.4452 C   0  0  0  0  0  0  0  0  0  0  0  0
   -4.7712    3.8527   -0.2572 N   0  0  0  0  0  0  0  0  0  0  0  0
   -2.6413    4.4477   -0.1932 N   0  0  0  0  0  0  0  0  0  0  0  0
   -1.1160   -0.3485    2.0619 N   0  0  0  0  0  0  0  0  0  0  0  0
   -1.7308    0.1497    3.0658 C   0  0  0  0  0  0  0  0  0  0  0  0
   -2.4523    1.2886    3.1713 N   0  0  0  0  0  0  0  0  0  0  0  0
   -1.7417   -0.4952    4.2533 N   0  0  0  0  0  0  0  0  0  0  0  0
    0.1030    1.9553    1.3374 H   0  0  0  0  0  0  0  0  0  0  0  0
   -0.1999    1.8426   -0.3814 H   0  0  0  0  0  0  0  0  0  0  0  0
   -2.0452    1.0007    0.7536 H   0  0  0  0  0  0  0  0  0  0  0  0
   -2.2075   -1.3878   -0.0623 H   0  0  0  0  0  0  0  0  0  0  0  0
   -0.1770   -2.1954   -1.3683 H   0  0  0  0  0  0  0  0  0  0  0  0
    1.9620   -1.4822   -0.0141 H   0  0  0  0  0  0  0  0  0  0  0  0
    1.9552    1.2234   -0.2829 H   0  0  0  0  0  0  0  0  0  0  0  0
    3.7004    1.7468    0.2857 H   0  0  0  0  0  0  0  0  0  0  0  0
    4.7033    1.8188    1.6206 H   0  0  0  0  0  0  0  0  0  0  0  0
    2.8288    0.2548    3.7786 H   0  0  0  0  0  0  0  0  0  0  0  0
    3.6395    1.7167    3.6719 H   0  0  0  0  0  0  0  0  0  0  0  0
    0.3700    0.7191   -2.3033 H   0  0  0  0  0  0  0  0  0  0  0  0
    1.9553   -0.9125   -4.3521 H   0  0  0  0  0  0  0  0  0  0  0  0
   -0.3122    0.9918   -5.0608 H   0  0  0  0  0  0  0  0  0  0  0  0
    2.6148    1.7288   -5.5521 H   0  0  0  0  0  0  0  0  0  0  0  0
    0.9331    2.8403   -3.2424 H   0  0  0  0  0  0  0  0  0  0  0  0
    3.9494    3.0365   -3.6417 H   0  0  0  0  0  0  0  0  0  0  0  0
    2.9214    3.9692   -2.5466 H   0  0  0  0  0  0  0  0  0  0  0  0
    3.6685    4.9005   -4.6593 H   0  0  0  0  0  0  0  0  0  0  0  0
    1.5363    3.8188   -5.5670 H   0  0  0  0  0  0  0  0  0  0  0  0
   -0.1888    2.2622   -6.9762 H   0  0  0  0  0  0  0  0  0  0  0  0
   -0.3591    1.9348   -8.6255 H   0  0  0  0  0  0  0  0  0  0  0  0
    1.1599   -1.0367   -8.4912 H   0  0  0  0  0  0  0  0  0  0  0  0
    0.8718    0.2909   -9.4537 H   0  0  0  0  0  0  0  0  0  0  0  0
   -0.7461   -0.8951   -3.4853 H   0  0  0  0  0  0  0  0  0  0  0  0
   -0.1253   -1.9226    1.4481 H   0  0  0  0  0  0  0  0  0  0  0  0
   -2.9978    0.5724   -2.9530 H   0  0  0  0  0  0  0  0  0  0  0  0
   -4.6943    1.5528   -1.8190 H   0  0  0  0  0  0  0  0  0  0  0  0
   -5.1157    1.2900    0.6661 H   0  0  0  0  0  0  0  0  0  0  0  0
   -3.8626    0.0988    0.7573 H   0  0  0  0  0  0  0  0  0  0  0  0
   -6.2976   -0.0192   -1.0253 H   0  0  0  0  0  0  0  0  0  0  0  0
   -4.1673   -2.1948   -0.5875 H   0  0  0  0  0  0  0  0  0  0  0  0
   -6.2586   -3.1501   -1.1665 H   0  0  0  0  0  0  0  0  0  0  0  0
   -5.2616   -3.2335   -2.6118 H   0  0  0  0  0  0  0  0  0  0  0  0
   -4.6740   -1.7339   -4.1560 H   0  0  0  0  0  0  0  0  0  0  0  0
   -5.4944   -1.0008   -5.4836 H   0  0  0  0  0  0  0  0  0  0  0  0
   -8.4272   -0.5855   -3.8167 H   0  0  0  0  0  0  0  0  0  0  0  0
   -7.3726    0.1317   -4.8943 H   0  0  0  0  0  0  0  0  0  0  0  0
   -5.5318   -1.6328    1.1924 H   0  0  0  0  0  0  0  0  0  0  0  0
   -5.4636    3.1152   -0.2213 H   0  0  0  0  0  0  0  0  0  0  0  0
   -4.8680    4.4649    0.5469 H   0  0  0  0  0  0  0  0  0  0  0  0
   -1.7131    4.1878   -0.5166 H   0  0  0  0  0  0  0  0  0  0  0  0
   -2.9474    5.3153   -0.6175 H   0  0  0  0  0  0  0  0  0  0  0  0
   -2.2514    1.9663    2.4446 H   0  0  0  0  0  0  0  0  0  0  0  0
   -2.3734    1.7096    4.0897 H   0  0  0  0  0  0  0  0  0  0  0  0
   -1.3398   -1.4226    4.1588 H   0  0  0  0  0  0  0  0  0  0  0  0
   -2.6719   -0.5561    4.6495 H   0  0  0  0  0  0  0  0  0  0  0  0
  1  2  1  0  0  0  0
  1  6  1  0  0  0  0
  1 48  1  0  0  0  0
  1 49  1  0  0  0  0
  2  3  1  0  0  0  0
  2 44  1  0  0  0  0
  2 50  1  1  0  0  0
  3  4  1  0  0  0  0
  3 27  1  0  0  0  0
  3 51  1  1  0  0  0
  4  5  1  0  0  0  0
  4 26  1  0  0  0  0
  4 52  1  6  0  0  0
  5  6  1  0  0  0  0
  5 11  1  0  0  0  0
  5 53  1  1  0  0  0
  6  7  1  0  0  0  0
  6 54  1  6  0  0  0
  7  8  2  0  0  0  0
  8  9  1  0  0  0  0
  8 10  1  0  0  0  0
  9 55  1  0  0  0  0
  9 56  1  0  0  0  0
 10 57  1  0  0  0  0
 10 58  1  0  0  0  0
 11 12  1  0  0  0  0
 12 13  1  0  0  0  0
 12 17  1  0  0  0  0
 12 59  1  1  0  0  0
 13 14  1  0  0  0  0
 13 25  1  0  0  0  0
 13 60  1  6  0  0  0
 14 15  1  0  0  0  0
 14 21  1  0  0  0  0
 14 61  1  1  0  0  0
 15 16  1  0  0  0  0
 15 20  1  0  0  0  0
 15 62  1  6  0  0  0
 16 17  1  0  0  0  0
 16 18  1  0  0  0  0
 16 63  1  1  0  0  0
 18 19  1  0  0  0  0
 18 64  1  0  0  0  0
 18 65  1  0  0  0  0
 19 66  1  0  0  0  0
 20 67  1  0  0  0  0
 21 22  2  0  0  0  0
 22 23  1  0  0  0  0
 22 24  1  0  0  0  0
 23 68  1  0  0  0  0
 23 69  1  0  0  0  0
 24 70  1  0  0  0  0
 24 71  1  0  0  0  0
 25 72  1  0  0  0  0
 26 73  1  0  0  0  0
 27 28  1  0  0  0  0
 28 29  1  0  0  0  0
 28 33  1  0  0  0  0
 28 74  1  6  0  0  0
 29 30  1  0  0  0  0
 29 40  1  0  0  0  0
 29 75  1  6  0  0  0
 30 31  1  0  0  0  0
 30 76  1  0  0  0  0
 30 77  1  0  0  0  0
 31 32  1  0  0  0  0
 31 39  1  0  0  0  0
 31 78  1  6  0  0  0
 32 33  1  0  0  0  0
 32 34  1  0  0  0  0
 32 79  1  1  0  0  0
 34 35  1  0  0  0  0
 34 80  1  0  0  0  0
 34 81  1  0  0  0  0
 35 36  2  0  0  0  0
 36 37  1  0  0  0  0
 36 38  1  0  0  0  0
 37 82  1  0  0  0  0
 37 83  1  0  0  0  0
 38 84  1  0  0  0  0
 38 85  1  0  0  0  0
 39 86  1  0  0  0  0
 40 41  2  0  0  0  0
 41 42  1  0  0  0  0
 41 43  1  0  0  0  0
 42 87  1  0  0  0  0
 42 88  1  0  0  0  0
 43 89  1  0  0  0  0
 43 90  1  0  0  0  0
 44 45  2  0  0  0  0
 45 46  1  0  0  0  0
 45 47  1  0  0  0  0
 46 91  1  0  0  0  0
 46 92  1  0  0  0  0
 47 93  1  0  0  0  0
 47 94  1  0  0  0  0
M  END
