
 OpenBabel10072620013D

 32 33  0  0  0  0  0  0  0  0999 V2000
   -3.0266    1.8471   -4.1922 C   0  0  0  0  0  0  0  0  0  0  0  0
   -3.6989    2.3491   -3.0797 C   0  0  0  0  0  0  0  0  0  0  0  0
   -3.5745    1.7158   -1.8439 C   0  0  0  0  0  0  0  0  0  0  0  0
   -2.7731    0.5747   -1.7094 C   0  0  0  0  0  0  0  0  0  0  0  0
   -2.0861    0.0886   -2.8307 C   0  0  0  0  0  0  0  0  0  0  0  0
   -2.2153    0.7210   -4.0668 C   0  0  0  0  0  0  0  0  0  0  0  0
   -2.6705   -0.1314   -0.3778 C   0  0  0  0  0  0  0  0  0  0  0  0
   -3.3572   -1.5010   -0.3737 C   0  0  0  0  0  0  0  0  0  0  0  0
   -4.8076   -1.3971   -0.4797 N   0  0  0  0  0  0  0  0  0  0  0  0
   -5.7100   -2.4054   -0.6056 C   0  0  0  0  0  0  0  0  0  0  0  0
   -5.3191   -4.0306   -0.6809 S   0  0  0  0  0  0  0  0  0  0  0  0
   -7.0246   -2.0641   -0.6635 N   0  0  0  0  0  0  0  0  0  0  0  0
   -7.6412   -0.8223   -0.5961 C   0  0  0  0  0  0  0  0  0  0  0  0
   -6.9160    0.3039   -0.4730 N   0  0  0  0  0  0  0  0  0  0  0  0
   -7.6078    1.4592   -0.4213 C   0  0  0  0  0  0  0  0  0  0  0  0
   -8.9779    1.5290   -0.4706 C   0  0  0  0  0  0  0  0  0  0  0  0
   -9.6223    0.3226   -0.5920 C   0  0  0  0  0  0  0  0  0  0  0  0
   -8.9813   -0.8592   -0.6609 N   0  0  0  0  0  0  0  0  0  0  0  0
   -3.1366    2.3313   -5.1581 H   0  0  0  0  0  0  0  0  0  0  0  0
   -4.3276    3.2294   -3.1761 H   0  0  0  0  0  0  0  0  0  0  0  0
   -4.1167    2.1089   -0.9877 H   0  0  0  0  0  0  0  0  0  0  0  0
   -1.4568   -0.7953   -2.7513 H   0  0  0  0  0  0  0  0  0  0  0  0
   -1.6898    0.3291   -4.9334 H   0  0  0  0  0  0  0  0  0  0  0  0
   -3.1008    0.4982    0.4116 H   0  0  0  0  0  0  0  0  0  0  0  0
   -1.6090   -0.2493   -0.1283 H   0  0  0  0  0  0  0  0  0  0  0  0
   -3.1398   -2.0150    0.5690 H   0  0  0  0  0  0  0  0  0  0  0  0
   -2.9893   -2.1323   -1.1894 H   0  0  0  0  0  0  0  0  0  0  0  0
   -5.2110   -0.4636   -0.4738 H   0  0  0  0  0  0  0  0  0  0  0  0
   -7.6827   -2.8221   -0.7621 H   0  0  0  0  0  0  0  0  0  0  0  0
   -7.0058    2.3595   -0.3342 H   0  0  0  0  0  0  0  0  0  0  0  0
   -9.5133    2.4670   -0.4255 H   0  0  0  0  0  0  0  0  0  0  0  0
  -10.7057    0.2651   -0.6412 H   0  0  0  0  0  0  0  0  0  0  0  0
  1  2  2  0  0  0  0
  1  6  1  0  0  0  0
  1 19  1  0  0  0  0
  2  3  1  0  0  0  0
  2 20  1  0  0  0  0
  3  4  2  0  0  0  0
  3 21  1  0  0  0  0
  4  5  1  0  0  0  0
  4  7  1  0  0  0  0
  5  6  2  0  0  0  0
  5 22  1  0  0  0  0
  6 23  1  0  0  0  0
  7  8  1  0  0  0  0
  7 24  1  0  0  0  0
  7 25  1  0  0  0  0
  8  9  1  0  0  0  0
  8 26  1  0  0  0  0
  8 27  1  0  0  0  0
  9 10  1  0  0  0  0
  9 28  1  0  0  0  0
 10 11  2  0  0  0  0
 10 12  1  0  0  0  0
 12 13  1  0  0  0  0
 12 29  1  0  0  0  0
 13 14  2  0  0  0  0
 13 18  1  0  0  0  0
 14 15  1  0  0  0  0
 15 16  2  0  0  0  0
 15 30  1  0  0  0  0
 16 17  1  0  0  0  0
 16 31  1  0  0  0  0
 17 18  2  0  0  0  0
 17 32  1  0  0  0  0
M  END
