
 OpenBabel10072619293D

273280  0  0  1  0  0  0  0  0999 V2000
    7.0108    0.9878   -1.6493 C   0  0  0  0  0  0  0  0  0  0  0  0
    5.6815    0.5053   -1.1017 C   0  0  0  0  0  0  0  0  0  0  0  0
    5.9437   -0.4877   -0.1169 O   0  0  0  0  0  0  0  0  0  0  0  0
    4.7366   -0.9922    0.4676 C   0  0  0  0  0  0  0  0  0  0  0  0
    5.0818   -1.8937    1.6665 C   0  0  2  0  0  0  0  0  0  0  0  0
    5.9615   -1.1515    2.6903 C   0  0  2  0  0  0  0  0  0  0  0  0
    6.6286   -2.0881    3.7221 C   0  0  1  0  0  0  0  0  0  0  0  0
    7.1988   -3.3483    3.0509 C   0  0  2  0  0  0  0  0  0  0  0  0
    6.1169   -3.9918    2.1532 C   0  0  2  0  0  0  0  0  0  0  0  0
    5.6895   -3.0833    1.1434 O   0  0  0  0  0  0  0  0  0  0  0  0
    5.0077   -4.4332    2.9389 O   0  0  0  0  0  0  0  0  0  0  0  0
    4.2367   -5.5148    2.3738 C   0  0  2  0  0  0  0  0  0  0  0  0
    2.8542   -5.4594    3.0648 C   0  0  2  0  0  0  0  0  0  0  0  0
    2.0946   -6.6667    2.8967 O   0  0  0  0  0  0  0  0  0  0  0  0
    2.7514   -7.7986    3.4537 C   0  0  1  0  0  0  0  0  0  0  0  0
    3.9424   -8.0873    2.5113 C   0  0  1  0  0  0  0  0  0  0  0  0
    4.9297   -6.8937    2.6060 C   0  0  1  0  0  0  0  0  0  0  0  0
    6.0967   -7.0571    1.7680 O   0  0  0  0  0  0  0  0  0  0  0  0
    5.8777   -7.3896    0.4028 C   0  0  0  0  0  0  0  0  0  0  0  0
    7.1979   -7.2201   -0.3251 C   0  0  0  0  0  0  0  0  0  0  0  0
    4.6407   -9.3052    2.8228 O   0  0  0  0  0  0  0  0  0  0  0  0
    3.9455  -10.5097    2.5190 C   0  0  0  0  0  0  0  0  0  0  0  0
    4.0307  -10.8665    1.0435 C   0  0  0  0  0  0  0  0  0  0  0  0
    3.2069   -7.5300    4.7713 O   0  0  0  0  0  0  0  0  0  0  0  0
    2.3692   -7.8910    5.8874 C   0  0  2  0  0  0  0  0  0  0  0  0
    1.1115   -6.9908    6.0350 C   0  0  2  0  0  0  0  0  0  0  0  0
    0.5309   -7.0768    7.3548 O   0  0  0  0  0  0  0  0  0  0  0  0
    1.4227   -6.6661    8.3845 C   0  0  1  0  0  0  0  0  0  0  0  0
    2.5920   -7.6507    8.4574 C   0  0  1  0  0  0  0  0  0  0  0  0
    3.3189   -7.7633    7.1156 C   0  0  1  0  0  0  0  0  0  0  0  0
    4.1550   -8.9508    7.2331 O   0  0  0  0  0  0  0  0  0  0  0  0
    5.2928   -8.9484    6.3785 C   0  0  0  0  0  0  0  0  0  0  0  0
    6.1684  -10.1310    6.7536 C   0  0  0  0  0  0  0  0  0  0  0  0
    3.5354   -7.2445    9.4632 O   0  0  0  0  0  0  0  0  0  0  0  0
    3.3373   -7.8739   10.7221 C   0  0  0  0  0  0  0  0  0  0  0  0
    4.3363   -7.2861   11.6974 C   0  0  0  0  0  0  0  0  0  0  0  0
    1.7818   -5.2983    8.1774 O   0  0  0  0  0  0  0  0  0  0  0  0
    1.7110   -4.4746    9.3603 C   0  0  2  0  0  0  0  0  0  0  0  0
    0.3284   -3.7815    9.5191 C   0  0  2  0  0  0  0  0  0  0  0  0
    0.3344   -2.8701   10.6346 O   0  0  0  0  0  0  0  0  0  0  0  0
    1.3139   -1.8404   10.5305 C   0  0  1  0  0  0  0  0  0  0  0  0
    2.7283   -2.4578   10.4811 C   0  0  1  0  0  0  0  0  0  0  0  0
    2.8185   -3.3971    9.2650 C   0  0  1  0  0  0  0  0  0  0  0  0
    4.1034   -4.0545    9.3021 O   0  0  0  0  0  0  0  0  0  0  0  0
    4.8054   -3.9415    8.0652 C   0  0  0  0  0  0  0  0  0  0  0  0
    6.1219   -4.6826    8.2067 C   0  0  0  0  0  0  0  0  0  0  0  0
    3.7567   -1.4529   10.3882 O   0  0  0  0  0  0  0  0  0  0  0  0
    4.0301   -0.8226   11.6368 C   0  0  0  0  0  0  0  0  0  0  0  0
    5.1006    0.2274   11.4209 C   0  0  0  0  0  0  0  0  0  0  0  0
    1.1104   -0.9915    9.4023 O   0  0  0  0  0  0  0  0  0  0  0  0
   -0.0234   -0.0961    9.4480 C   0  0  2  0  0  0  0  0  0  0  0  0
   -0.1996    0.4266    7.9972 C   0  0  2  0  0  0  0  0  0  0  0  0
   -1.0887    1.5484    7.8714 O   0  0  0  0  0  0  0  0  0  0  0  0
   -0.7416    2.6617    8.6816 C   0  0  1  0  0  0  0  0  0  0  0  0
   -0.8385    2.2283   10.1660 C   0  0  1  0  0  0  0  0  0  0  0  0
    0.1809    1.0931   10.4249 C   0  0  1  0  0  0  0  0  0  0  0  0
    0.2145    0.6943   11.8159 O   0  0  0  0  0  0  0  0  0  0  0  0
   -0.9845    0.1678   12.3734 C   0  0  0  0  0  0  0  0  0  0  0  0
   -0.6888   -0.2365   13.8072 C   0  0  0  0  0  0  0  0  0  0  0  0
   -0.5757    3.3117   11.0773 O   0  0  0  0  0  0  0  0  0  0  0  0
   -1.6451    4.2296   11.2648 C   0  0  0  0  0  0  0  0  0  0  0  0
   -2.5446    3.7793   12.4032 C   0  0  0  0  0  0  0  0  0  0  0  0
    0.5572    3.1443    8.3427 O   0  0  0  0  0  0  0  0  0  0  0  0
    0.6132    4.2616    7.4149 C   0  0  2  0  0  0  0  0  0  0  0  0
    0.3761    3.8014    5.9460 C   0  0  2  0  0  0  0  0  0  0  0  0
    0.9081    4.7040    4.9524 O   0  0  0  0  0  0  0  0  0  0  0  0
    2.2851    4.9908    5.1223 C   0  0  1  0  0  0  0  0  0  0  0  0
    2.4757    5.7568    6.4310 C   0  0  1  0  0  0  0  0  0  0  0  0
    2.0177    4.9062    7.6216 C   0  0  1  0  0  0  0  0  0  0  0  0
    1.9982    5.8312    8.7458 O   0  0  0  0  0  0  0  0  0  0  0  0
    2.1013    5.2019   10.0153 C   0  0  0  0  0  0  0  0  0  0  0  0
    2.2279    6.2873   11.0703 C   0  0  0  0  0  0  0  0  0  0  0  0
    3.8662    6.1029    6.6243 O   0  0  0  0  0  0  0  0  0  0  0  0
    4.1992    7.3882    6.1160 C   0  0  0  0  0  0  0  0  0  0  0  0
    5.6082    7.7220    6.5664 C   0  0  0  0  0  0  0  0  0  0  0  0
    3.0423    3.7892    5.1074 O   0  0  0  0  0  0  0  0  0  0  0  0
    3.8273    3.5590    3.9281 C   0  0  2  0  0  0  0  0  0  0  0  0
    3.2925    2.2889    3.2148 C   0  0  2  0  0  0  0  0  0  0  0  0
    4.3224    1.6960    2.4211 O   0  0  0  0  0  0  0  0  0  0  0  0
    5.3850    1.1421    3.2103 C   0  0  2  0  0  0  0  0  0  0  0  0
    5.1271   -0.2426    3.4364 O   0  0  0  0  0  0  0  0  0  0  0  0
    5.6071    1.8820    4.5595 C   0  0  1  0  0  0  0  0  0  0  0  0
    5.3067    3.3732    4.3608 C   0  0  1  0  0  0  0  0  0  0  0  0
    6.2173    3.8837    3.3698 O   0  0  0  0  0  0  0  0  0  0  0  0
    6.5486    5.2548    3.5661 C   0  0  0  0  0  0  0  0  0  0  0  0
    7.4882    5.6799    2.4548 C   0  0  0  0  0  0  0  0  0  0  0  0
    4.7343    1.4061    5.6046 O   0  0  0  0  0  0  0  0  0  0  0  0
    5.4038    0.5529    6.5175 C   0  0  0  0  0  0  0  0  0  0  0  0
    4.4147    0.1114    7.5706 C   0  0  0  0  0  0  0  0  0  0  0  0
    2.1129    2.6460    2.2925 C   0  0  0  0  0  0  0  0  0  0  0  0
    1.6111    1.5624    1.4984 O   0  0  0  0  0  0  0  0  0  0  0  0
    1.1450    0.4191    2.2029 C   0  0  0  0  0  0  0  0  0  0  0  0
   -0.0768    0.7138    3.0542 C   0  0  0  0  0  0  0  0  0  0  0  0
   -1.1135    3.6740    5.5585 C   0  0  0  0  0  0  0  0  0  0  0  0
   -1.8399    4.8533    5.9284 O   0  0  0  0  0  0  0  0  0  0  0  0
   -3.2080    4.7707    5.5289 C   0  0  0  0  0  0  0  0  0  0  0  0
   -3.8877    6.0797    5.8772 C   0  0  0  0  0  0  0  0  0  0  0  0
   -0.7722   -0.6714    7.0849 C   0  0  0  0  0  0  0  0  0  0  0  0
   -2.0843   -1.0151    7.5472 O   0  0  0  0  0  0  0  0  0  0  0  0
   -2.6424   -2.1093    6.8354 C   0  0  0  0  0  0  0  0  0  0  0  0
   -4.0824   -2.2678    7.2737 C   0  0  0  0  0  0  0  0  0  0  0  0
   -0.7897   -4.8042    9.7887 C   0  0  0  0  0  0  0  0  0  0  0  0
   -2.0584   -4.1657    9.9919 O   0  0  0  0  0  0  0  0  0  0  0  0
   -3.0288   -5.1087   10.4491 C   0  0  0  0  0  0  0  0  0  0  0  0
   -4.3279   -4.3884   10.7473 C   0  0  0  0  0  0  0  0  0  0  0  0
   -0.0457   -7.3523    5.0845 C   0  0  0  0  0  0  0  0  0  0  0  0
   -0.2938   -8.7641    5.1000 O   0  0  0  0  0  0  0  0  0  0  0  0
   -1.4343   -9.1029    4.3140 C   0  0  0  0  0  0  0  0  0  0  0  0
   -1.6523  -10.5993    4.4210 C   0  0  0  0  0  0  0  0  0  0  0  0
    1.9902   -4.3189    2.5170 C   0  0  0  0  0  0  0  0  0  0  0  0
    0.7352   -4.3188    3.2108 O   0  0  0  0  0  0  0  0  0  0  0  0
   -0.1437   -3.3263    2.6999 C   0  0  0  0  0  0  0  0  0  0  0  0
   -1.4084   -3.3685    3.5263 C   0  0  0  0  0  0  0  0  0  0  0  0
    7.6301   -4.2715    4.0754 O   0  0  0  0  0  0  0  0  0  0  0  0
    8.5894   -5.2206    3.6188 C   0  0  0  0  0  0  0  0  0  0  0  0
    8.9329   -6.1459    4.7699 C   0  0  0  0  0  0  0  0  0  0  0  0
    7.6763   -1.2885    4.3423 O   0  0  0  0  0  0  0  0  0  0  0  0
    8.2047   -1.8356    5.5478 C   0  0  0  0  0  0  0  0  0  0  0  0
    9.0067   -0.7480    6.2399 C   0  0  0  0  0  0  0  0  0  0  0  0
    6.8603    1.7522   -2.4162 H   0  0  0  0  0  0  0  0  0  0  0  0
    7.5750    0.1560   -2.0837 H   0  0  0  0  0  0  0  0  0  0  0  0
    7.6297    1.4058   -0.8483 H   0  0  0  0  0  0  0  0  0  0  0  0
    5.0782    0.0740   -1.9070 H   0  0  0  0  0  0  0  0  0  0  0  0
    5.1402    1.3438   -0.6502 H   0  0  0  0  0  0  0  0  0  0  0  0
    4.2027   -1.5709   -0.2971 H   0  0  0  0  0  0  0  0  0  0  0  0
    4.0957   -0.1647    0.7834 H   0  0  0  0  0  0  0  0  0  0  0  0
    4.1312   -2.1682    2.1301 H   0  0  0  0  0  0  0  0  0  0  0  0
    6.7693   -0.6192    2.1756 H   0  0  0  0  0  0  0  0  0  0  0  0
    5.9070   -2.3508    4.5069 H   0  0  0  0  0  0  0  0  0  0  0  0
    8.0649   -3.0464    2.4465 H   0  0  0  0  0  0  0  0  0  0  0  0
    6.5749   -4.8299    1.6382 H   0  0  0  0  0  0  0  0  0  0  0  0
    4.1088   -5.3342    1.3006 H   0  0  0  0  0  0  0  0  0  0  0  0
    2.9763   -5.2619    4.1373 H   0  0  0  0  0  0  0  0  0  0  0  0
    2.0516   -8.6376    3.4586 H   0  0  0  0  0  0  0  0  0  0  0  0
    3.5732   -8.1477    1.4803 H   0  0  0  0  0  0  0  0  0  0  0  0
    5.3575   -6.8781    3.6180 H   0  0  0  0  0  0  0  0  0  0  0  0
    5.1216   -6.7424   -0.0501 H   0  0  0  0  0  0  0  0  0  0  0  0
    5.5570   -8.4310    0.3197 H   0  0  0  0  0  0  0  0  0  0  0  0
    7.5411   -6.1827   -0.2546 H   0  0  0  0  0  0  0  0  0  0  0  0
    7.1038   -7.4895   -1.3800 H   0  0  0  0  0  0  0  0  0  0  0  0
    7.9733   -7.8433    0.1333 H   0  0  0  0  0  0  0  0  0  0  0  0
    2.9031  -10.4696    2.8470 H   0  0  0  0  0  0  0  0  0  0  0  0
    4.4306  -11.3029    3.0962 H   0  0  0  0  0  0  0  0  0  0  0  0
    3.5157  -10.1323    0.4184 H   0  0  0  0  0  0  0  0  0  0  0  0
    3.5764  -11.8449    0.8613 H   0  0  0  0  0  0  0  0  0  0  0  0
    5.0734  -10.8988    0.7122 H   0  0  0  0  0  0  0  0  0  0  0  0
    2.0885   -8.9473    5.7877 H   0  0  0  0  0  0  0  0  0  0  0  0
    1.3707   -5.9431    5.8368 H   0  0  0  0  0  0  0  0  0  0  0  0
    0.8732   -6.7661    9.3230 H   0  0  0  0  0  0  0  0  0  0  0  0
    2.1961   -8.6487    8.7021 H   0  0  0  0  0  0  0  0  0  0  0  0
    3.9814   -6.8969    6.9964 H   0  0  0  0  0  0  0  0  0  0  0  0
    5.8572   -8.0174    6.4978 H   0  0  0  0  0  0  0  0  0  0  0  0
    4.9790   -9.0641    5.3412 H   0  0  0  0  0  0  0  0  0  0  0  0
    6.5265  -10.0372    7.7847 H   0  0  0  0  0  0  0  0  0  0  0  0
    7.0303  -10.2019    6.0875 H   0  0  0  0  0  0  0  0  0  0  0  0
    5.6012  -11.0673    6.6961 H   0  0  0  0  0  0  0  0  0  0  0  0
    3.4977   -8.9542   10.6256 H   0  0  0  0  0  0  0  0  0  0  0  0
    2.3197   -7.6879   11.0775 H   0  0  0  0  0  0  0  0  0  0  0  0
    5.3599   -7.4379   11.3367 H   0  0  0  0  0  0  0  0  0  0  0  0
    4.2350   -7.7438   12.6851 H   0  0  0  0  0  0  0  0  0  0  0  0
    4.1939   -6.2043   11.7887 H   0  0  0  0  0  0  0  0  0  0  0  0
    1.9252   -5.0815   10.2448 H   0  0  0  0  0  0  0  0  0  0  0  0
    0.0638   -3.2278    8.6140 H   0  0  0  0  0  0  0  0  0  0  0  0
    1.2592   -1.2595   11.4518 H   0  0  0  0  0  0  0  0  0  0  0  0
    2.9099   -3.0598   11.3803 H   0  0  0  0  0  0  0  0  0  0  0  0
    2.7265   -2.8269    8.3357 H   0  0  0  0  0  0  0  0  0  0  0  0
    5.0019   -2.8842    7.8471 H   0  0  0  0  0  0  0  0  0  0  0  0
    4.2137   -4.3848    7.2579 H   0  0  0  0  0  0  0  0  0  0  0  0
    6.7292   -4.2417    9.0052 H   0  0  0  0  0  0  0  0  0  0  0  0
    6.6908   -4.6459    7.2777 H   0  0  0  0  0  0  0  0  0  0  0  0
    5.9513   -5.7306    8.4771 H   0  0  0  0  0  0  0  0  0  0  0  0
    4.3834   -1.5698   12.3559 H   0  0  0  0  0  0  0  0  0  0  0  0
    3.1310   -0.3395   12.0287 H   0  0  0  0  0  0  0  0  0  0  0  0
    6.0148   -0.2249   11.0239 H   0  0  0  0  0  0  0  0  0  0  0  0
    5.3334    0.7358   12.3613 H   0  0  0  0  0  0  0  0  0  0  0  0
    4.7669    0.9713   10.6906 H   0  0  0  0  0  0  0  0  0  0  0  0
   -0.9078   -0.6706    9.7412 H   0  0  0  0  0  0  0  0  0  0  0  0
    0.7795    0.7093    7.5876 H   0  0  0  0  0  0  0  0  0  0  0  0
   -1.4815    3.4458    8.4957 H   0  0  0  0  0  0  0  0  0  0  0  0
   -1.8475    1.8409   10.3553 H   0  0  0  0  0  0  0  0  0  0  0  0
    1.1920    1.4904   10.2597 H   0  0  0  0  0  0  0  0  0  0  0  0
   -1.3203   -0.7116   11.8198 H   0  0  0  0  0  0  0  0  0  0  0  0
   -1.7754    0.9195   12.3714 H   0  0  0  0  0  0  0  0  0  0  0  0
    0.1099   -0.9855   13.8397 H   0  0  0  0  0  0  0  0  0  0  0  0
   -1.5787   -0.6492   14.2878 H   0  0  0  0  0  0  0  0  0  0  0  0
   -0.3397    0.6249   14.3867 H   0  0  0  0  0  0  0  0  0  0  0  0
   -2.2195    4.3895   10.3482 H   0  0  0  0  0  0  0  0  0  0  0  0
   -1.1948    5.1903   11.5373 H   0  0  0  0  0  0  0  0  0  0  0  0
   -3.1053    2.8824   12.1282 H   0  0  0  0  0  0  0  0  0  0  0  0
   -3.2623    4.5620   12.6634 H   0  0  0  0  0  0  0  0  0  0  0  0
   -1.9512    3.5348   13.2907 H   0  0  0  0  0  0  0  0  0  0  0  0
   -0.1305    5.0072    7.7204 H   0  0  0  0  0  0  0  0  0  0  0  0
    0.8359    2.8168    5.7917 H   0  0  0  0  0  0  0  0  0  0  0  0
    2.5818    5.6482    4.2973 H   0  0  0  0  0  0  0  0  0  0  0  0
    1.8647    6.6705    6.4143 H   0  0  0  0  0  0  0  0  0  0  0  0
    2.7728    4.1368    7.8329 H   0  0  0  0  0  0  0  0  0  0  0  0
    2.9764    4.5442   10.0459 H   0  0  0  0  0  0  0  0  0  0  0  0
    1.1959    4.6323   10.2063 H   0  0  0  0  0  0  0  0  0  0  0  0
    3.1492    6.8631   10.9308 H   0  0  0  0  0  0  0  0  0  0  0  0
    2.2380    5.8524   12.0711 H   0  0  0  0  0  0  0  0  0  0  0  0
    1.3931    6.9943   11.0045 H   0  0  0  0  0  0  0  0  0  0  0  0
    3.5065    8.1420    6.5059 H   0  0  0  0  0  0  0  0  0  0  0  0
    4.1458    7.3757    5.0234 H   0  0  0  0  0  0  0  0  0  0  0  0
    5.6569    7.7808    7.6590 H   0  0  0  0  0  0  0  0  0  0  0  0
    5.9311    8.6798    6.1481 H   0  0  0  0  0  0  0  0  0  0  0  0
    6.3125    6.9426    6.2612 H   0  0  0  0  0  0  0  0  0  0  0  0
    3.7773    4.4104    3.2384 H   0  0  0  0  0  0  0  0  0  0  0  0
    2.9284    1.5562    3.9437 H   0  0  0  0  0  0  0  0  0  0  0  0
    6.2869    1.2848    2.6029 H   0  0  0  0  0  0  0  0  0  0  0  0
    6.6528    1.7473    4.8585 H   0  0  0  0  0  0  0  0  0  0  0  0
    5.4791    3.8863    5.3169 H   0  0  0  0  0  0  0  0  0  0  0  0
    7.0531    5.3694    4.5313 H   0  0  0  0  0  0  0  0  0  0  0  0
    5.6448    5.8712    3.5472 H   0  0  0  0  0  0  0  0  0  0  0  0
    8.3836    5.0502    2.4440 H   0  0  0  0  0  0  0  0  0  0  0  0
    7.7956    6.7211    2.5817 H   0  0  0  0  0  0  0  0  0  0  0  0
    7.0118    5.5680    1.4756 H   0  0  0  0  0  0  0  0  0  0  0  0
    6.2286    1.0976    6.9897 H   0  0  0  0  0  0  0  0  0  0  0  0
    5.7876   -0.3241    5.9957 H   0  0  0  0  0  0  0  0  0  0  0  0
    3.9776    0.9736    8.0831 H   0  0  0  0  0  0  0  0  0  0  0  0
    4.9175   -0.5226    8.3003 H   0  0  0  0  0  0  0  0  0  0  0  0
    3.5903   -0.4456    7.1151 H   0  0  0  0  0  0  0  0  0  0  0  0
    2.4434    3.3997    1.5714 H   0  0  0  0  0  0  0  0  0  0  0  0
    1.2886    3.0899    2.8556 H   0  0  0  0  0  0  0  0  0  0  0  0
    1.9470   -0.0365    2.7932 H   0  0  0  0  0  0  0  0  0  0  0  0
    0.8689   -0.3131    1.4370 H   0  0  0  0  0  0  0  0  0  0  0  0
    0.1761    1.3719    3.8884 H   0  0  0  0  0  0  0  0  0  0  0  0
   -0.4899   -0.2079    3.4716 H   0  0  0  0  0  0  0  0  0  0  0  0
   -0.8520    1.2139    2.4654 H   0  0  0  0  0  0  0  0  0  0  0  0
   -1.5849    2.8064    6.0160 H   0  0  0  0  0  0  0  0  0  0  0  0
   -1.1882    3.5562    4.4699 H   0  0  0  0  0  0  0  0  0  0  0  0
   -3.6943    3.9431    6.0579 H   0  0  0  0  0  0  0  0  0  0  0  0
   -3.2720    4.5973    4.4487 H   0  0  0  0  0  0  0  0  0  0  0  0
   -3.7967    6.2936    6.9475 H   0  0  0  0  0  0  0  0  0  0  0  0
   -4.9482    6.0531    5.6116 H   0  0  0  0  0  0  0  0  0  0  0  0
   -3.4129    6.9111    5.3451 H   0  0  0  0  0  0  0  0  0  0  0  0
   -0.1273   -1.5558    7.0684 H   0  0  0  0  0  0  0  0  0  0  0  0
   -0.8666   -0.2860    6.0634 H   0  0  0  0  0  0  0  0  0  0  0  0
   -2.0793   -3.0204    7.0622 H   0  0  0  0  0  0  0  0  0  0  0  0
   -2.6075   -1.9139    5.7602 H   0  0  0  0  0  0  0  0  0  0  0  0
   -4.1484   -2.2988    8.3647 H   0  0  0  0  0  0  0  0  0  0  0  0
   -4.5173   -3.1790    6.8558 H   0  0  0  0  0  0  0  0  0  0  0  0
   -4.6779   -1.4095    6.9444 H   0  0  0  0  0  0  0  0  0  0  0  0
   -0.5337   -5.3711   10.6918 H   0  0  0  0  0  0  0  0  0  0  0  0
   -0.9003   -5.4903    8.9442 H   0  0  0  0  0  0  0  0  0  0  0  0
   -2.6696   -5.5932   11.3636 H   0  0  0  0  0  0  0  0  0  0  0  0
   -3.1888   -5.8722    9.6810 H   0  0  0  0  0  0  0  0  0  0  0  0
   -4.1663   -3.5792   11.4656 H   0  0  0  0  0  0  0  0  0  0  0  0
   -5.0678   -5.0845   11.1549 H   0  0  0  0  0  0  0  0  0  0  0  0
   -4.7390   -3.9391    9.8402 H   0  0  0  0  0  0  0  0  0  0  0  0
    0.1528   -7.0439    4.0594 H   0  0  0  0  0  0  0  0  0  0  0  0
   -0.9562   -6.8360    5.4158 H   0  0  0  0  0  0  0  0  0  0  0  0
   -1.2601   -8.8226    3.2691 H   0  0  0  0  0  0  0  0  0  0  0  0
   -2.3155   -8.5710    4.6896 H   0  0  0  0  0  0  0  0  0  0  0  0
   -0.7680  -11.1448    4.0750 H   0  0  0  0  0  0  0  0  0  0  0  0
   -2.5152  -10.9141    3.8283 H   0  0  0  0  0  0  0  0  0  0  0  0
   -1.8166  -10.8877    5.4645 H   0  0  0  0  0  0  0  0  0  0  0  0
    1.8025   -4.4635    1.4475 H   0  0  0  0  0  0  0  0  0  0  0  0
    2.4735   -3.3542    2.6766 H   0  0  0  0  0  0  0  0  0  0  0  0
   -0.3713   -3.5257    1.6470 H   0  0  0  0  0  0  0  0  0  0  0  0
    0.3292   -2.3454    2.7900 H   0  0  0  0  0  0  0  0  0  0  0  0
   -1.8980   -4.3437    3.4359 H   0  0  0  0  0  0  0  0  0  0  0  0
   -2.1070   -2.5888    3.2145 H   0  0  0  0  0  0  0  0  0  0  0  0
   -1.1641   -3.2361    4.5843 H   0  0  0  0  0  0  0  0  0  0  0  0
    9.4911   -4.6986    3.2831 H   0  0  0  0  0  0  0  0  0  0  0  0
    8.1942   -5.8075    2.7873 H   0  0  0  0  0  0  0  0  0  0  0  0
    9.3962   -5.5851    5.5878 H   0  0  0  0  0  0  0  0  0  0  0  0
    9.6208   -6.9309    4.4448 H   0  0  0  0  0  0  0  0  0  0  0  0
    8.0262   -6.6088    5.1754 H   0  0  0  0  0  0  0  0  0  0  0  0
    8.8753   -2.6669    5.3205 H   0  0  0  0  0  0  0  0  0  0  0  0
    7.3985   -2.1780    6.2050 H   0  0  0  0  0  0  0  0  0  0  0  0
    9.8275   -0.4103    5.5990 H   0  0  0  0  0  0  0  0  0  0  0  0
    9.4227   -1.1082    7.1849 H   0  0  0  0  0  0  0  0  0  0  0  0
    8.3831    0.1279    6.4407 H   0  0  0  0  0  0  0  0  0  0  0  0
  1  2  1  0  0  0  0
  1120  1  0  0  0  0
  1121  1  0  0  0  0
  1122  1  0  0  0  0
  2  3  1  0  0  0  0
  2123  1  0  0  0  0
  2124  1  0  0  0  0
  3  4  1  0  0  0  0
  4  5  1  0  0  0  0
  4125  1  0  0  0  0
  4126  1  0  0  0  0
  5  6  1  0  0  0  0
  5 10  1  0  0  0  0
  5127  1  1  0  0  0
  6  7  1  0  0  0  0
  6 81  1  0  0  0  0
  6128  1  6  0  0  0
  7  8  1  0  0  0  0
  7117  1  0  0  0  0
  7129  1  1  0  0  0
  8  9  1  0  0  0  0
  8114  1  0  0  0  0
  8130  1  6  0  0  0
  9 10  1  0  0  0  0
  9 11  1  0  0  0  0
  9131  1  6  0  0  0
 11 12  1  0  0  0  0
 12 13  1  0  0  0  0
 12 17  1  0  0  0  0
 12132  1  6  0  0  0
 13 14  1  0  0  0  0
 13110  1  0  0  0  0
 13133  1  1  0  0  0
 14 15  1  0  0  0  0
 15 16  1  0  0  0  0
 15 24  1  0  0  0  0
 15134  1  1  0  0  0
 16 17  1  0  0  0  0
 16 21  1  0  0  0  0
 16135  1  6  0  0  0
 17 18  1  0  0  0  0
 17136  1  1  0  0  0
 18 19  1  0  0  0  0
 19 20  1  0  0  0  0
 19137  1  0  0  0  0
 19138  1  0  0  0  0
 20139  1  0  0  0  0
 20140  1  0  0  0  0
 20141  1  0  0  0  0
 21 22  1  0  0  0  0
 22 23  1  0  0  0  0
 22142  1  0  0  0  0
 22143  1  0  0  0  0
 23144  1  0  0  0  0
 23145  1  0  0  0  0
 23146  1  0  0  0  0
 24 25  1  0  0  0  0
 25 26  1  0  0  0  0
 25 30  1  0  0  0  0
 25147  1  6  0  0  0
 26 27  1  0  0  0  0
 26106  1  0  0  0  0
 26148  1  6  0  0  0
 27 28  1  0  0  0  0
 28 29  1  0  0  0  0
 28 37  1  0  0  0  0
 28149  1  1  0  0  0
 29 30  1  0  0  0  0
 29 34  1  0  0  0  0
 29150  1  1  0  0  0
 30 31  1  0  0  0  0
 30151  1  6  0  0  0
 31 32  1  0  0  0  0
 32 33  1  0  0  0  0
 32152  1  0  0  0  0
 32153  1  0  0  0  0
 33154  1  0  0  0  0
 33155  1  0  0  0  0
 33156  1  0  0  0  0
 34 35  1  0  0  0  0
 35 36  1  0  0  0  0
 35157  1  0  0  0  0
 35158  1  0  0  0  0
 36159  1  0  0  0  0
 36160  1  0  0  0  0
 36161  1  0  0  0  0
 37 38  1  0  0  0  0
 38 39  1  0  0  0  0
 38 43  1  0  0  0  0
 38162  1  1  0  0  0
 39 40  1  0  0  0  0
 39102  1  0  0  0  0
 39163  1  6  0  0  0
 40 41  1  0  0  0  0
 41 42  1  0  0  0  0
 41 50  1  0  0  0  0
 41164  1  1  0  0  0
 42 43  1  0  0  0  0
 42 47  1  0  0  0  0
 42165  1  1  0  0  0
 43 44  1  0  0  0  0
 43166  1  6  0  0  0
 44 45  1  0  0  0  0
 45 46  1  0  0  0  0
 45167  1  0  0  0  0
 45168  1  0  0  0  0
 46169  1  0  0  0  0
 46170  1  0  0  0  0
 46171  1  0  0  0  0
 47 48  1  0  0  0  0
 48 49  1  0  0  0  0
 48172  1  0  0  0  0
 48173  1  0  0  0  0
 49174  1  0  0  0  0
 49175  1  0  0  0  0
 49176  1  0  0  0  0
 50 51  1  0  0  0  0
 51 52  1  0  0  0  0
 51 56  1  0  0  0  0
 51177  1  1  0  0  0
 52 53  1  0  0  0  0
 52 98  1  0  0  0  0
 52178  1  6  0  0  0
 53 54  1  0  0  0  0
 54 55  1  0  0  0  0
 54 63  1  0  0  0  0
 54179  1  6  0  0  0
 55 56  1  0  0  0  0
 55 60  1  0  0  0  0
 55180  1  1  0  0  0
 56 57  1  0  0  0  0
 56181  1  6  0  0  0
 57 58  1  0  0  0  0
 58 59  1  0  0  0  0
 58182  1  0  0  0  0
 58183  1  0  0  0  0
 59184  1  0  0  0  0
 59185  1  0  0  0  0
 59186  1  0  0  0  0
 60 61  1  0  0  0  0
 61 62  1  0  0  0  0
 61187  1  0  0  0  0
 61188  1  0  0  0  0
 62189  1  0  0  0  0
 62190  1  0  0  0  0
 62191  1  0  0  0  0
 63 64  1  0  0  0  0
 64 65  1  0  0  0  0
 64 69  1  0  0  0  0
 64192  1  1  0  0  0
 65 66  1  0  0  0  0
 65 94  1  0  0  0  0
 65193  1  6  0  0  0
 66 67  1  0  0  0  0
 67 68  1  0  0  0  0
 67 76  1  0  0  0  0
 67194  1  6  0  0  0
 68 69  1  0  0  0  0
 68 73  1  0  0  0  0
 68195  1  6  0  0  0
 69 70  1  0  0  0  0
 69196  1  1  0  0  0
 70 71  1  0  0  0  0
 71 72  1  0  0  0  0
 71197  1  0  0  0  0
 71198  1  0  0  0  0
 72199  1  0  0  0  0
 72200  1  0  0  0  0
 72201  1  0  0  0  0
 73 74  1  0  0  0  0
 74 75  1  0  0  0  0
 74202  1  0  0  0  0
 74203  1  0  0  0  0
 75204  1  0  0  0  0
 75205  1  0  0  0  0
 75206  1  0  0  0  0
 76 77  1  0  0  0  0
 77 78  1  0  0  0  0
 77 83  1  0  0  0  0
 77207  1  6  0  0  0
 78 79  1  0  0  0  0
 78 90  1  0  0  0  0
 78208  1  1  0  0  0
 79 80  1  0  0  0  0
 80 81  1  0  0  0  0
 80 82  1  0  0  0  0
 80209  1  6  0  0  0
 82 83  1  0  0  0  0
 82 87  1  0  0  0  0
 82210  1  1  0  0  0
 83 84  1  0  0  0  0
 83211  1  1  0  0  0
 84 85  1  0  0  0  0
 85 86  1  0  0  0  0
 85212  1  0  0  0  0
 85213  1  0  0  0  0
 86214  1  0  0  0  0
 86215  1  0  0  0  0
 86216  1  0  0  0  0
 87 88  1  0  0  0  0
 88 89  1  0  0  0  0
 88217  1  0  0  0  0
 88218  1  0  0  0  0
 89219  1  0  0  0  0
 89220  1  0  0  0  0
 89221  1  0  0  0  0
 90 91  1  0  0  0  0
 90222  1  0  0  0  0
 90223  1  0  0  0  0
 91 92  1  0  0  0  0
 92 93  1  0  0  0  0
 92224  1  0  0  0  0
 92225  1  0  0  0  0
 93226  1  0  0  0  0
 93227  1  0  0  0  0
 93228  1  0  0  0  0
 94 95  1  0  0  0  0
 94229  1  0  0  0  0
 94230  1  0  0  0  0
 95 96  1  0  0  0  0
 96 97  1  0  0  0  0
 96231  1  0  0  0  0
 96232  1  0  0  0  0
 97233  1  0  0  0  0
 97234  1  0  0  0  0
 97235  1  0  0  0  0
 98 99  1  0  0  0  0
 98236  1  0  0  0  0
 98237  1  0  0  0  0
 99100  1  0  0  0  0
100101  1  0  0  0  0
100238  1  0  0  0  0
100239  1  0  0  0  0
101240  1  0  0  0  0
101241  1  0  0  0  0
101242  1  0  0  0  0
102103  1  0  0  0  0
102243  1  0  0  0  0
102244  1  0  0  0  0
103104  1  0  0  0  0
104105  1  0  0  0  0
104245  1  0  0  0  0
104246  1  0  0  0  0
105247  1  0  0  0  0
105248  1  0  0  0  0
105249  1  0  0  0  0
106107  1  0  0  0  0
106250  1  0  0  0  0
106251  1  0  0  0  0
107108  1  0  0  0  0
108109  1  0  0  0  0
108252  1  0  0  0  0
108253  1  0  0  0  0
109254  1  0  0  0  0
109255  1  0  0  0  0
109256  1  0  0  0  0
110111  1  0  0  0  0
110257  1  0  0  0  0
110258  1  0  0  0  0
111112  1  0  0  0  0
112113  1  0  0  0  0
112259  1  0  0  0  0
112260  1  0  0  0  0
113261  1  0  0  0  0
113262  1  0  0  0  0
113263  1  0  0  0  0
114115  1  0  0  0  0
115116  1  0  0  0  0
115264  1  0  0  0  0
115265  1  0  0  0  0
116266  1  0  0  0  0
116267  1  0  0  0  0
116268  1  0  0  0  0
117118  1  0  0  0  0
118119  1  0  0  0  0
118269  1  0  0  0  0
118270  1  0  0  0  0
119271  1  0  0  0  0
119272  1  0  0  0  0
119273  1  0  0  0  0
M  END
