
 OpenBabel10072620103D

 50 52  0  0  0  0  0  0  0  0999 V2000
    1.0428    2.6096   -0.7857 C   0  0  0  0  0  0  0  0  0  0  0  0
   -0.1235    1.6605   -0.8579 C   0  0  0  0  0  0  0  0  0  0  0  0
   -0.6222    1.1961   -2.0915 C   0  0  0  0  0  0  0  0  0  0  0  0
   -1.7057    0.3017   -2.0986 C   0  0  0  0  0  0  0  0  0  0  0  0
   -2.3107   -0.1060   -0.9028 C   0  0  0  0  0  0  0  0  0  0  0  0
   -1.8332    0.3777    0.3174 C   0  0  0  0  0  0  0  0  0  0  0  0
   -0.7477    1.2558    0.3345 C   0  0  0  0  0  0  0  0  0  0  0  0
   -3.4234   -1.0912   -0.9628 C   0  0  0  0  0  0  0  0  0  0  0  0
   -3.4640   -1.8976   -1.8892 O   0  0  0  0  0  0  0  0  0  0  0  0
   -4.3827   -0.9648    0.0237 N   0  0  0  0  0  0  0  0  0  0  0  0
   -5.4912   -1.7854    0.1578 C   0  0  0  0  0  0  0  0  0  0  0  0
   -5.5233   -3.1313    0.1772 C   0  0  0  0  0  0  0  0  0  0  0  0
   -4.3998   -4.0068    0.1532 C   0  0  0  0  0  0  0  0  0  0  0  0
   -3.1051   -3.8623    0.6454 C   0  0  0  0  0  0  0  0  0  0  0  0
   -2.3918   -5.0522    0.3757 C   0  0  0  0  0  0  0  0  0  0  0  0
   -3.2884   -5.8908   -0.2303 C   0  0  0  0  0  0  0  0  0  0  0  0
   -4.4974   -5.2909   -0.3473 O   0  0  0  0  0  0  0  0  0  0  0  0
   -6.7689   -1.0279    0.4212 C   0  0  0  0  0  0  0  0  0  0  0  0
   -6.7291    0.0082    1.0818 O   0  0  0  0  0  0  0  0  0  0  0  0
   -7.8926   -1.5060   -0.2025 N   0  0  0  0  0  0  0  0  0  0  0  0
   -9.1845   -0.8791   -0.0454 C   0  0  0  0  0  0  0  0  0  0  0  0
   -9.9988   -1.5875    1.0063 C   0  0  0  0  0  0  0  0  0  0  0  0
   -9.8716   -1.2244    2.3561 C   0  0  0  0  0  0  0  0  0  0  0  0
  -10.6075   -1.8844    3.3429 C   0  0  0  0  0  0  0  0  0  0  0  0
  -11.4663   -2.9209    2.9863 C   0  0  0  0  0  0  0  0  0  0  0  0
  -11.5946   -3.3024    1.6522 C   0  0  0  0  0  0  0  0  0  0  0  0
  -10.8582   -2.6419    0.6651 C   0  0  0  0  0  0  0  0  0  0  0  0
  -12.3681   -3.7427    4.2001 Cl  0  0  0  0  0  0  0  0  0  0  0  0
    0.0050    1.6003   -3.3985 C   0  0  0  0  0  0  0  0  0  0  0  0
    1.8536    2.2854   -1.4466 H   0  0  0  0  0  0  0  0  0  0  0  0
    1.4589    2.6497    0.2272 H   0  0  0  0  0  0  0  0  0  0  0  0
    0.7255    3.6193   -1.0670 H   0  0  0  0  0  0  0  0  0  0  0  0
   -2.0866   -0.0890   -3.0420 H   0  0  0  0  0  0  0  0  0  0  0  0
   -2.2668    0.0544    1.2604 H   0  0  0  0  0  0  0  0  0  0  0  0
   -0.3769    1.6115    1.2937 H   0  0  0  0  0  0  0  0  0  0  0  0
   -4.5335   -0.0141    0.3577 H   0  0  0  0  0  0  0  0  0  0  0  0
   -6.4711   -3.6492    0.2946 H   0  0  0  0  0  0  0  0  0  0  0  0
   -2.7136   -2.9842    1.1375 H   0  0  0  0  0  0  0  0  0  0  0  0
   -1.3572   -5.2683    0.6011 H   0  0  0  0  0  0  0  0  0  0  0  0
   -3.2226   -6.8978   -0.6162 H   0  0  0  0  0  0  0  0  0  0  0  0
   -7.8285   -2.3038   -0.8188 H   0  0  0  0  0  0  0  0  0  0  0  0
   -9.6904   -0.9263   -1.0157 H   0  0  0  0  0  0  0  0  0  0  0  0
   -9.0750    0.1818    0.2074 H   0  0  0  0  0  0  0  0  0  0  0  0
   -9.1934   -0.4222    2.6448 H   0  0  0  0  0  0  0  0  0  0  0  0
  -10.5047   -1.5871    4.3832 H   0  0  0  0  0  0  0  0  0  0  0  0
  -12.2646   -4.1120    1.3755 H   0  0  0  0  0  0  0  0  0  0  0  0
  -10.9641   -2.9538   -0.3715 H   0  0  0  0  0  0  0  0  0  0  0  0
    0.0401    2.6904   -3.4861 H   0  0  0  0  0  0  0  0  0  0  0  0
   -0.5654    1.2249   -4.2546 H   0  0  0  0  0  0  0  0  0  0  0  0
    1.0198    1.1972   -3.4745 H   0  0  0  0  0  0  0  0  0  0  0  0
  1  2  1  0  0  0  0
  1 30  1  0  0  0  0
  1 31  1  0  0  0  0
  1 32  1  0  0  0  0
  2  3  2  0  0  0  0
  2  7  1  0  0  0  0
  3  4  1  0  0  0  0
  3 29  1  0  0  0  0
  4  5  2  0  0  0  0
  4 33  1  0  0  0  0
  5  6  1  0  0  0  0
  5  8  1  0  0  0  0
  6  7  2  0  0  0  0
  6 34  1  0  0  0  0
  7 35  1  0  0  0  0
  8  9  2  0  0  0  0
  8 10  1  0  0  0  0
 10 11  1  0  0  0  0
 10 36  1  0  0  0  0
 11 12  2  0  0  0  0
 11 18  1  0  0  0  0
 12 13  1  0  0  0  0
 12 37  1  0  0  0  0
 13 14  2  0  0  0  0
 13 17  1  0  0  0  0
 14 15  1  0  0  0  0
 14 38  1  0  0  0  0
 15 16  2  0  0  0  0
 15 39  1  0  0  0  0
 16 17  1  0  0  0  0
 16 40  1  0  0  0  0
 18 19  2  0  0  0  0
 18 20  1  0  0  0  0
 20 21  1  0  0  0  0
 20 41  1  0  0  0  0
 21 22  1  0  0  0  0
 21 42  1  0  0  0  0
 21 43  1  0  0  0  0
 22 23  2  0  0  0  0
 22 27  1  0  0  0  0
 23 24  1  0  0  0  0
 23 44  1  0  0  0  0
 24 25  2  0  0  0  0
 24 45  1  0  0  0  0
 25 26  1  0  0  0  0
 25 28  1  0  0  0  0
 26 27  2  0  0  0  0
 26 46  1  0  0  0  0
 27 47  1  0  0  0  0
 29 48  1  0  0  0  0
 29 49  1  0  0  0  0
 29 50  1  0  0  0  0
M  END
