
 OpenBabel10072619483D

 54 57  0  0  0  0  0  0  0  0999 V2000
    4.2851    0.3005   -1.6636 C   0  0  0  0  0  0  0  0  0  0  0  0
    3.0853   -0.2861   -0.9145 C   0  0  0  0  0  0  0  0  0  0  0  0
    2.0484   -0.7914   -1.9209 C   0  0  0  0  0  0  0  0  0  0  0  0
    3.5261   -1.4143    0.0386 C   0  0  0  0  0  0  0  0  0  0  0  0
    4.0777   -0.8483    1.2665 N   0  0  0  0  0  0  0  0  0  0  0  0
    4.7245   -1.6832    2.1749 C   0  0  0  0  0  0  0  0  0  0  0  0
    4.3476   -3.0205    2.4612 C   0  0  0  0  0  0  0  0  0  0  0  0
    4.9893   -3.8552    3.4388 C   0  0  0  0  0  0  0  0  0  0  0  0
    6.0690   -3.4408    4.2383 C   0  0  0  0  0  0  0  0  0  0  0  0
    6.4318   -2.1351    3.9392 C   0  0  0  0  0  0  0  0  0  0  0  0
    7.4466   -1.4278    4.5039 C   0  0  0  0  0  0  0  0  0  0  0  0
    7.4387   -0.2096    3.9041 N   0  0  0  0  0  0  0  0  0  0  0  0
    6.4681   -0.0659    2.9747 N   0  0  0  0  0  0  0  0  0  0  0  0
    5.8250   -1.2550    2.9680 C   0  0  0  0  0  0  0  0  0  0  0  0
    8.6153   -1.7575    5.6836 Cl  0  0  0  0  0  0  0  0  0  0  0  0
    4.5369   -5.2056    3.5591 N   0  0  0  0  0  0  0  0  0  0  0  0
    5.3953   -6.3958    2.7051 S   0  0  0  0  0  0  0  0  0  0  0  0
    4.4288   -7.4345    2.4140 O   0  0  0  0  0  0  0  0  0  0  0  0
    6.1813   -5.7899    1.6535 O   0  0  0  0  0  0  0  0  0  0  0  0
    6.5014   -7.0271    3.9438 C   0  0  0  0  0  0  0  0  0  0  0  0
    6.1143   -8.1203    4.7207 C   0  0  0  0  0  0  0  0  0  0  0  0
    6.9891   -8.6184    5.6821 C   0  0  0  0  0  0  0  0  0  0  0  0
    8.2411   -8.0237    5.8630 C   0  0  0  0  0  0  0  0  0  0  0  0
    8.6537   -6.9300    5.0797 C   0  0  0  0  0  0  0  0  0  0  0  0
    7.7705   -6.4545    4.0966 C   0  0  0  0  0  0  0  0  0  0  0  0
    9.9707   -6.3034    5.2909 C   0  0  0  0  0  0  0  0  0  0  0  0
   10.8309   -6.0384    4.2113 C   0  0  0  0  0  0  0  0  0  0  0  0
   12.0885   -5.4617    4.4142 C   0  0  0  0  0  0  0  0  0  0  0  0
   12.4987   -5.1344    5.7029 C   0  0  0  0  0  0  0  0  0  0  0  0
   11.6631   -5.3760    6.7890 C   0  0  0  0  0  0  0  0  0  0  0  0
   10.4076   -5.9554    6.5821 C   0  0  0  0  0  0  0  0  0  0  0  0
   14.0436   -4.4221    5.9533 Cl  0  0  0  0  0  0  0  0  0  0  0  0
    3.9838    1.1718   -2.2545 H   0  0  0  0  0  0  0  0  0  0  0  0
    4.7225   -0.4338   -2.3492 H   0  0  0  0  0  0  0  0  0  0  0  0
    5.0692    0.6248   -0.9734 H   0  0  0  0  0  0  0  0  0  0  0  0
    2.6174    0.5174   -0.3307 H   0  0  0  0  0  0  0  0  0  0  0  0
    2.4433   -1.6069   -2.5360 H   0  0  0  0  0  0  0  0  0  0  0  0
    1.7347    0.0152   -2.5919 H   0  0  0  0  0  0  0  0  0  0  0  0
    1.1520   -1.1559   -1.4091 H   0  0  0  0  0  0  0  0  0  0  0  0
    4.2608   -2.0607   -0.4585 H   0  0  0  0  0  0  0  0  0  0  0  0
    2.6553   -2.0297    0.2953 H   0  0  0  0  0  0  0  0  0  0  0  0
    4.6114    0.0184    1.1612 H   0  0  0  0  0  0  0  0  0  0  0  0
    3.5117   -3.4434    1.9074 H   0  0  0  0  0  0  0  0  0  0  0  0
    6.5459   -4.0558    4.9857 H   0  0  0  0  0  0  0  0  0  0  0  0
    8.0663    0.5680    4.0734 H   0  0  0  0  0  0  0  0  0  0  0  0
    3.5352   -5.3621    3.4410 H   0  0  0  0  0  0  0  0  0  0  0  0
    5.1447   -8.5922    4.5790 H   0  0  0  0  0  0  0  0  0  0  0  0
    6.7019   -9.4726    6.2908 H   0  0  0  0  0  0  0  0  0  0  0  0
    8.9095   -8.4371    6.6173 H   0  0  0  0  0  0  0  0  0  0  0  0
    8.0618   -5.6167    3.4642 H   0  0  0  0  0  0  0  0  0  0  0  0
   10.5326   -6.2960    3.1965 H   0  0  0  0  0  0  0  0  0  0  0  0
   12.7392   -5.2758    3.5640 H   0  0  0  0  0  0  0  0  0  0  0  0
   11.9778   -5.1170    7.7963 H   0  0  0  0  0  0  0  0  0  0  0  0
    9.7635   -6.1245    7.4434 H   0  0  0  0  0  0  0  0  0  0  0  0
  1  2  1  0  0  0  0
  1 33  1  0  0  0  0
  1 34  1  0  0  0  0
  1 35  1  0  0  0  0
  2  3  1  0  0  0  0
  2  4  1  0  0  0  0
  2 36  1  0  0  0  0
  3 37  1  0  0  0  0
  3 38  1  0  0  0  0
  3 39  1  0  0  0  0
  4  5  1  0  0  0  0
  4 40  1  0  0  0  0
  4 41  1  0  0  0  0
  5  6  1  0  0  0  0
  5 42  1  0  0  0  0
  6  7  2  0  0  0  0
  6 14  1  0  0  0  0
  7  8  1  0  0  0  0
  7 43  1  0  0  0  0
  8  9  2  0  0  0  0
  8 16  1  0  0  0  0
  9 10  1  0  0  0  0
  9 44  1  0  0  0  0
 10 11  2  0  0  0  0
 10 14  1  0  0  0  0
 11 12  1  0  0  0  0
 11 15  1  0  0  0  0
 12 13  1  0  0  0  0
 12 45  1  0  0  0  0
 13 14  2  0  0  0  0
 16 17  1  0  0  0  0
 16 46  1  0  0  0  0
 17 18  2  0  0  0  0
 17 19  2  0  0  0  0
 17 20  1  0  0  0  0
 20 21  2  0  0  0  0
 20 25  1  0  0  0  0
 21 22  1  0  0  0  0
 21 47  1  0  0  0  0
 22 23  2  0  0  0  0
 22 48  1  0  0  0  0
 23 24  1  0  0  0  0
 23 49  1  0  0  0  0
 24 25  2  0  0  0  0
 24 26  1  0  0  0  0
 25 50  1  0  0  0  0
 26 27  2  0  0  0  0
 26 31  1  0  0  0  0
 27 28  1  0  0  0  0
 27 51  1  0  0  0  0
 28 29  2  0  0  0  0
 28 52  1  0  0  0  0
 29 30  1  0  0  0  0
 29 32  1  0  0  0  0
 30 31  2  0  0  0  0
 30 53  1  0  0  0  0
 31 54  1  0  0  0  0
M  END
