
 OpenBabel10072619543D

 32 33  0  0  0  0  0  0  0  0999 V2000
    7.5327   -1.8490   -1.5430 C   0  0  0  0  0  0  0  0  0  0  0  0
    6.5435   -1.2491   -2.5244 C   0  0  0  0  0  0  0  0  0  0  0  0
    6.8069    0.1515   -2.6899 O   0  0  0  0  0  0  0  0  0  0  0  0
    6.1752    0.9759   -1.8182 C   0  0  0  0  0  0  0  0  0  0  0  0
    5.4115    0.6513   -0.9247 O   0  0  0  0  0  0  0  0  0  0  0  0
    6.5772    2.3585   -2.1308 C   0  0  0  0  0  0  0  0  0  0  0  0
    6.0466    3.3803   -1.4443 C   0  0  0  0  0  0  0  0  0  0  0  0
    6.4353    4.7169   -1.7288 C   0  0  0  0  0  0  0  0  0  0  0  0
    5.9737    5.8981   -1.1638 C   0  0  0  0  0  0  0  0  0  0  0  0
    6.6701    6.9720   -1.7717 C   0  0  0  0  0  0  0  0  0  0  0  0
    7.5348    6.4103   -2.6855 C   0  0  0  0  0  0  0  0  0  0  0  0
    7.3890    5.0548   -2.6614 O   0  0  0  0  0  0  0  0  0  0  0  0
    8.5251    6.9345   -3.6230 C   0  0  0  0  0  0  0  0  0  0  0  0
    8.8874    8.2895   -3.6000 C   0  0  0  0  0  0  0  0  0  0  0  0
    9.8313    8.7946   -4.5000 C   0  0  0  0  0  0  0  0  0  0  0  0
   10.4263    7.9521   -5.4358 C   0  0  0  0  0  0  0  0  0  0  0  0
   10.0803    6.6044   -5.4719 C   0  0  0  0  0  0  0  0  0  0  0  0
    9.1375    6.1006   -4.5719 C   0  0  0  0  0  0  0  0  0  0  0  0
    7.3830   -2.9285   -1.4515 H   0  0  0  0  0  0  0  0  0  0  0  0
    7.4268   -1.3953   -0.5524 H   0  0  0  0  0  0  0  0  0  0  0  0
    8.5605   -1.6617   -1.8709 H   0  0  0  0  0  0  0  0  0  0  0  0
    5.5088   -1.4287   -2.2106 H   0  0  0  0  0  0  0  0  0  0  0  0
    6.6682   -1.7173   -3.5063 H   0  0  0  0  0  0  0  0  0  0  0  0
    7.3063    2.4985   -2.9201 H   0  0  0  0  0  0  0  0  0  0  0  0
    5.3149    3.2074   -0.6593 H   0  0  0  0  0  0  0  0  0  0  0  0
    5.2154    5.9712   -0.3957 H   0  0  0  0  0  0  0  0  0  0  0  0
    6.5483    8.0255   -1.5654 H   0  0  0  0  0  0  0  0  0  0  0  0
    8.4427    8.9703   -2.8789 H   0  0  0  0  0  0  0  0  0  0  0  0
   10.0995    9.8475   -4.4702 H   0  0  0  0  0  0  0  0  0  0  0  0
   11.1584    8.3448   -6.1366 H   0  0  0  0  0  0  0  0  0  0  0  0
   10.5386    5.9422   -6.2015 H   0  0  0  0  0  0  0  0  0  0  0  0
    8.8794    5.0448   -4.6225 H   0  0  0  0  0  0  0  0  0  0  0  0
  1  2  1  0  0  0  0
  1 19  1  0  0  0  0
  1 20  1  0  0  0  0
  1 21  1  0  0  0  0
  2  3  1  0  0  0  0
  2 22  1  0  0  0  0
  2 23  1  0  0  0  0
  3  4  1  0  0  0  0
  4  5  2  0  0  0  0
  4  6  1  0  0  0  0
  6  7  2  0  0  0  0
  6 24  1  0  0  0  0
  7  8  1  0  0  0  0
  7 25  1  0  0  0  0
  8  9  2  0  0  0  0
  8 12  1  0  0  0  0
  9 10  1  0  0  0  0
  9 26  1  0  0  0  0
 10 11  2  0  0  0  0
 10 27  1  0  0  0  0
 11 12  1  0  0  0  0
 11 13  1  0  0  0  0
 13 14  2  0  0  0  0
 13 18  1  0  0  0  0
 14 15  1  0  0  0  0
 14 28  1  0  0  0  0
 15 16  2  0  0  0  0
 15 29  1  0  0  0  0
 16 17  1  0  0  0  0
 16 30  1  0  0  0  0
 17 18  2  0  0  0  0
 17 31  1  0  0  0  0
 18 32  1  0  0  0  0
M  END
