
 OpenBabel10072619563D

 34 33  0  0  0  0  0  0  0  0999 V2000
    0.9525    1.8915    1.4069 C   0  0  0  0  0  0  0  0  0  0  0  0
    2.2545    1.3987    2.0218 C   0  0  0  0  0  0  0  0  0  0  0  0
    3.2713    0.9925    0.9557 C   0  0  0  0  0  0  0  0  0  0  0  0
    4.4789    0.2715    1.5251 C   0  0  0  0  0  0  0  0  0  0  0  0
    5.0683   -0.7768    1.0283 N   0  0  0  0  0  0  0  0  0  0  0  0
    4.4928   -1.2564   -0.1513 N   0  0  0  0  0  0  0  0  0  0  0  0
    5.3920   -1.6081   -1.0136 C   0  0  0  0  0  0  0  0  0  0  0  0
    6.7338   -1.5351   -0.8316 N   0  0  0  0  0  0  0  0  0  0  0  0
    5.1003   -2.0885   -2.2431 N   0  0  0  0  0  0  0  0  0  0  0  0
    5.1136    0.8271    2.7799 C   0  0  0  0  0  0  0  0  0  0  0  0
    5.9234    1.8447    2.7849 N   0  0  0  0  0  0  0  0  0  0  0  0
    6.1420    2.3809    1.5107 N   0  0  0  0  0  0  0  0  0  0  0  0
    7.3480    2.8275    1.3591 C   0  0  0  0  0  0  0  0  0  0  0  0
    8.3379    2.7778    2.2828 N   0  0  0  0  0  0  0  0  0  0  0  0
    7.7783    3.4053    0.2153 N   0  0  0  0  0  0  0  0  0  0  0  0
    4.7602    0.1301    4.0618 C   0  0  0  0  0  0  0  0  0  0  0  0
    0.2647    2.2189    2.1929 H   0  0  0  0  0  0  0  0  0  0  0  0
    0.4587    1.0960    0.8394 H   0  0  0  0  0  0  0  0  0  0  0  0
    1.1261    2.7391    0.7369 H   0  0  0  0  0  0  0  0  0  0  0  0
    2.0365    0.5492    2.6800 H   0  0  0  0  0  0  0  0  0  0  0  0
    2.6692    2.1961    2.6496 H   0  0  0  0  0  0  0  0  0  0  0  0
    3.6258    1.8768    0.4143 H   0  0  0  0  0  0  0  0  0  0  0  0
    2.7722    0.3512    0.2223 H   0  0  0  0  0  0  0  0  0  0  0  0
    6.8885   -1.0541    0.0546 H   0  0  0  0  0  0  0  0  0  0  0  0
    7.1814   -1.0248   -1.5815 H   0  0  0  0  0  0  0  0  0  0  0  0
    4.1233   -2.3533   -2.3065 H   0  0  0  0  0  0  0  0  0  0  0  0
    5.7079   -2.8583   -2.4957 H   0  0  0  0  0  0  0  0  0  0  0  0
    7.9157    2.4879    3.1638 H   0  0  0  0  0  0  0  0  0  0  0  0
    8.7972    3.6730    2.3925 H   0  0  0  0  0  0  0  0  0  0  0  0
    7.1092    3.2666   -0.5343 H   0  0  0  0  0  0  0  0  0  0  0  0
    8.7046    3.0972   -0.0530 H   0  0  0  0  0  0  0  0  0  0  0  0
    4.5671   -0.9312    3.8806 H   0  0  0  0  0  0  0  0  0  0  0  0
    3.8644    0.5887    4.4884 H   0  0  0  0  0  0  0  0  0  0  0  0
    5.5829    0.2235    4.7770 H   0  0  0  0  0  0  0  0  0  0  0  0
  1  2  1  0  0  0  0
  1 17  1  0  0  0  0
  1 18  1  0  0  0  0
  1 19  1  0  0  0  0
  2  3  1  0  0  0  0
  2 20  1  0  0  0  0
  2 21  1  0  0  0  0
  3  4  1  0  0  0  0
  3 22  1  0  0  0  0
  3 23  1  0  0  0  0
  4  5  2  0  0  0  0
  4 10  1  0  0  0  0
  5  6  1  0  0  0  0
  6  7  2  0  0  0  0
  7  8  1  0  0  0  0
  7  9  1  0  0  0  0
  8 24  1  0  0  0  0
  8 25  1  0  0  0  0
  9 26  1  0  0  0  0
  9 27  1  0  0  0  0
 10 11  2  0  0  0  0
 10 16  1  0  0  0  0
 11 12  1  0  0  0  0
 12 13  2  0  0  0  0
 13 14  1  0  0  0  0
 13 15  1  0  0  0  0
 14 28  1  0  0  0  0
 14 29  1  0  0  0  0
 15 30  1  0  0  0  0
 15 31  1  0  0  0  0
 16 32  1  0  0  0  0
 16 33  1  0  0  0  0
 16 34  1  0  0  0  0
M  END
