
 OpenBabel10072619513D

 74 78  0  0  0  0  0  0  0  0999 V2000
   -2.2286   -0.2393   -0.9692 C   0  0  0  0  0  0  0  0  0  0  0  0
   -0.8855   -0.1401   -0.3732 N   0  3  0  0  0  0  0  0  0  0  0  0
   -0.4833    1.0103    0.2084 C   0  0  0  0  0  0  0  0  0  0  0  0
    0.7867    1.1094    0.7567 C   0  0  0  0  0  0  0  0  0  0  0  0
    1.6441    0.0127    0.7027 C   0  0  0  0  0  0  0  0  0  0  0  0
    1.2251   -1.1765    0.1130 C   0  0  0  0  0  0  0  0  0  0  0  0
   -0.0643   -1.2159   -0.4244 C   0  0  0  0  0  0  0  0  0  0  0  0
    2.0198   -2.3452    0.0276 N   0  0  0  0  0  0  0  0  0  0  0  0
    3.3110   -2.5120    0.5130 C   0  0  0  0  0  0  0  0  0  0  0  0
    3.9574   -1.6693    1.1209 O   0  0  0  0  0  0  0  0  0  0  0  0
    3.9141   -3.8616    0.2926 C   0  0  0  0  0  0  0  0  0  0  0  0
    3.5693   -4.6632   -0.7987 C   0  0  0  0  0  0  0  0  0  0  0  0
    4.1327   -5.9371   -0.9437 C   0  0  0  0  0  0  0  0  0  0  0  0
    5.0623   -6.4261   -0.0231 C   0  0  0  0  0  0  0  0  0  0  0  0
    5.4303   -5.6050    1.0502 C   0  0  0  0  0  0  0  0  0  0  0  0
    4.8637   -4.3314    1.2066 C   0  0  0  0  0  0  0  0  0  0  0  0
    5.6705   -7.6992   -0.1251 N   0  0  0  0  0  0  0  0  0  0  0  0
    5.4401   -8.6492   -1.1080 C   0  0  0  0  0  0  0  0  0  0  0  0
    4.6399   -8.5562   -2.0335 O   0  0  0  0  0  0  0  0  0  0  0  0
    6.2878   -9.8777   -1.0490 C   0  0  0  0  0  0  0  0  0  0  0  0
    6.7677  -10.4257    0.1459 C   0  0  0  0  0  0  0  0  0  0  0  0
    7.5603  -11.5805    0.1150 C   0  0  0  0  0  0  0  0  0  0  0  0
    7.8798  -12.1990   -1.1026 C   0  0  0  0  0  0  0  0  0  0  0  0
    7.3637  -11.6754   -2.2929 C   0  0  0  0  0  0  0  0  0  0  0  0
    6.5757  -10.5208   -2.2630 C   0  0  0  0  0  0  0  0  0  0  0  0
    8.7449  -13.4172   -1.0761 C   0  0  0  0  0  0  0  0  0  0  0  0
    8.7262  -14.1165   -0.0712 O   0  0  0  0  0  0  0  0  0  0  0  0
    9.5276  -13.6111   -2.2025 N   0  0  0  0  0  0  0  0  0  0  0  0
   10.4368  -14.6626   -2.4471 C   0  0  0  0  0  0  0  0  0  0  0  0
   10.6798  -15.7065   -1.5551 C   0  0  0  0  0  0  0  0  0  0  0  0
   11.6138  -16.7011   -1.8592 C   0  0  0  0  0  0  0  0  0  0  0  0
   12.3024  -16.6752   -3.0714 C   0  0  0  0  0  0  0  0  0  0  0  0
   12.0462  -15.6529   -3.9917 C   0  0  0  0  0  0  0  0  0  0  0  0
   11.1297  -14.6412   -3.6654 C   0  0  0  0  0  0  0  0  0  0  0  0
   12.7187  -15.5852   -5.3235 C   0  0  0  0  0  0  0  0  0  0  0  0
   12.8350  -14.5049   -5.8921 O   0  0  0  0  0  0  0  0  0  0  0  0
   13.1403  -16.7925   -5.8535 N   0  0  0  0  0  0  0  0  0  0  0  0
   13.8194  -16.9732   -7.0773 C   0  0  0  0  0  0  0  0  0  0  0  0
   14.1818  -15.9349   -7.9420 C   0  0  0  0  0  0  0  0  0  0  0  0
   14.8319  -16.1945   -9.1022 N   0  3  0  0  0  0  0  0  0  0  0  0
   15.1478  -17.4597   -9.4545 C   0  0  0  0  0  0  0  0  0  0  0  0
   14.8166  -18.5252   -8.6286 C   0  0  0  0  0  0  0  0  0  0  0  0
   14.1471  -18.2800   -7.4349 C   0  0  0  0  0  0  0  0  0  0  0  0
   15.1821  -15.0878  -10.0102 C   0  0  0  0  0  0  0  0  0  0  0  0
   -2.7543    0.7133   -0.8766 H   0  0  0  0  0  0  0  0  0  0  0  0
   -2.7738   -1.0213   -0.4349 H   0  0  0  0  0  0  0  0  0  0  0  0
   -2.1084   -0.4977   -2.0248 H   0  0  0  0  0  0  0  0  0  0  0  0
   -1.1794    1.8436    0.2284 H   0  0  0  0  0  0  0  0  0  0  0  0
    1.1151    2.0341    1.2275 H   0  0  0  0  0  0  0  0  0  0  0  0
    2.6324    0.1222    1.1435 H   0  0  0  0  0  0  0  0  0  0  0  0
   -0.4614   -2.1039   -0.9060 H   0  0  0  0  0  0  0  0  0  0  0  0
    1.5891   -3.1683   -0.3755 H   0  0  0  0  0  0  0  0  0  0  0  0
    2.8913   -4.3204   -1.5740 H   0  0  0  0  0  0  0  0  0  0  0  0
    3.8305   -6.5172   -1.8096 H   0  0  0  0  0  0  0  0  0  0  0  0
    6.1608   -5.9361    1.7848 H   0  0  0  0  0  0  0  0  0  0  0  0
    5.1665   -3.7098    2.0489 H   0  0  0  0  0  0  0  0  0  0  0  0
    6.3834   -7.8994    0.5641 H   0  0  0  0  0  0  0  0  0  0  0  0
    6.5162   -9.9968    1.1110 H   0  0  0  0  0  0  0  0  0  0  0  0
    7.9247  -12.0058    1.0492 H   0  0  0  0  0  0  0  0  0  0  0  0
    7.5316  -12.1635   -3.2489 H   0  0  0  0  0  0  0  0  0  0  0  0
    6.1767  -10.1247   -3.1970 H   0  0  0  0  0  0  0  0  0  0  0  0
    9.4934  -12.8951   -2.9143 H   0  0  0  0  0  0  0  0  0  0  0  0
   10.1661  -15.7706   -0.6001 H   0  0  0  0  0  0  0  0  0  0  0  0
   11.8044  -17.4917   -1.1357 H   0  0  0  0  0  0  0  0  0  0  0  0
   13.0457  -17.4451   -3.2531 H   0  0  0  0  0  0  0  0  0  0  0  0
   10.9583  -13.8379   -4.3787 H   0  0  0  0  0  0  0  0  0  0  0  0
   12.8933  -17.6339   -5.3449 H   0  0  0  0  0  0  0  0  0  0  0  0
   13.9661  -14.8920   -7.7481 H   0  0  0  0  0  0  0  0  0  0  0  0
   15.6644  -17.6044  -10.3992 H   0  0  0  0  0  0  0  0  0  0  0  0
   15.0781  -19.5425   -8.9113 H   0  0  0  0  0  0  0  0  0  0  0  0
   13.8899  -19.1214   -6.7926 H   0  0  0  0  0  0  0  0  0  0  0  0
   15.1504  -14.1363   -9.4739 H   0  0  0  0  0  0  0  0  0  0  0  0
   14.4564  -15.0944  -10.8278 H   0  0  0  0  0  0  0  0  0  0  0  0
   16.1946  -15.2591  -10.3863 H   0  0  0  0  0  0  0  0  0  0  0  0
  1  2  1  0  0  0  0
  1 45  1  0  0  0  0
  1 46  1  0  0  0  0
  1 47  1  0  0  0  0
  2  3  2  0  0  0  0
  2  7  1  0  0  0  0
  3  4  1  0  0  0  0
  3 48  1  0  0  0  0
  4  5  2  0  0  0  0
  4 49  1  0  0  0  0
  5  6  1  0  0  0  0
  5 50  1  0  0  0  0
  6  7  2  0  0  0  0
  6  8  1  0  0  0  0
  7 51  1  0  0  0  0
  8  9  1  0  0  0  0
  8 52  1  0  0  0  0
  9 10  2  0  0  0  0
  9 11  1  0  0  0  0
 11 12  2  0  0  0  0
 11 16  1  0  0  0  0
 12 13  1  0  0  0  0
 12 53  1  0  0  0  0
 13 14  2  0  0  0  0
 13 54  1  0  0  0  0
 14 15  1  0  0  0  0
 14 17  1  0  0  0  0
 15 16  2  0  0  0  0
 15 55  1  0  0  0  0
 16 56  1  0  0  0  0
 17 18  1  0  0  0  0
 17 57  1  0  0  0  0
 18 19  2  0  0  0  0
 18 20  1  0  0  0  0
 20 21  2  0  0  0  0
 20 25  1  0  0  0  0
 21 22  1  0  0  0  0
 21 58  1  0  0  0  0
 22 23  2  0  0  0  0
 22 59  1  0  0  0  0
 23 24  1  0  0  0  0
 23 26  1  0  0  0  0
 24 25  2  0  0  0  0
 24 60  1  0  0  0  0
 25 61  1  0  0  0  0
 26 27  2  0  0  0  0
 26 28  1  0  0  0  0
 28 29  1  0  0  0  0
 28 62  1  0  0  0  0
 29 30  2  0  0  0  0
 29 34  1  0  0  0  0
 30 31  1  0  0  0  0
 30 63  1  0  0  0  0
 31 32  2  0  0  0  0
 31 64  1  0  0  0  0
 32 33  1  0  0  0  0
 32 65  1  0  0  0  0
 33 34  2  0  0  0  0
 33 35  1  0  0  0  0
 34 66  1  0  0  0  0
 35 36  2  0  0  0  0
 35 37  1  0  0  0  0
 37 38  1  0  0  0  0
 37 67  1  0  0  0  0
 38 39  2  0  0  0  0
 38 43  1  0  0  0  0
 39 40  1  0  0  0  0
 39 68  1  0  0  0  0
 40 41  2  0  0  0  0
 40 44  1  0  0  0  0
 41 42  1  0  0  0  0
 41 69  1  0  0  0  0
 42 43  2  0  0  0  0
 42 70  1  0  0  0  0
 43 71  1  0  0  0  0
 44 72  1  0  0  0  0
 44 73  1  0  0  0  0
 44 74  1  0  0  0  0
M  CHG  2   2   1  40   1
M  END
