
 OpenBabel10072619483D

 36 38  0  0  0  0  0  0  0  0999 V2000
    2.2001   -0.7618    1.4336 C   0  0  0  0  0  0  0  0  0  0  0  0
    1.0061   -0.2933    0.6565 C   0  0  0  0  0  0  0  0  0  0  0  0
    0.3802    0.9165    0.9735 C   0  0  0  0  0  0  0  0  0  0  0  0
   -0.7404    1.3462    0.2523 C   0  0  0  0  0  0  0  0  0  0  0  0
   -1.2587    0.5713   -0.7941 C   0  0  0  0  0  0  0  0  0  0  0  0
   -0.6446   -0.6541   -1.0872 C   0  0  0  0  0  0  0  0  0  0  0  0
    0.4739   -1.0825   -0.3673 C   0  0  0  0  0  0  0  0  0  0  0  0
   -2.4576    1.0142   -1.5824 C   0  0  0  0  0  0  0  0  0  0  0  0
   -1.3335    2.6191    0.5661 N   0  0  0  0  0  0  0  0  0  0  0  0
   -0.4233    3.9477   -0.0025 S   0  0  0  0  0  0  0  0  0  0  0  0
    0.5409    4.2639    1.0299 O   0  0  0  0  0  0  0  0  0  0  0  0
   -0.0371    3.7432   -1.3806 O   0  0  0  0  0  0  0  0  0  0  0  0
   -1.6723    5.2149    0.0151 C   0  0  0  0  0  0  0  0  0  0  0  0
   -1.7555    6.0845    1.1106 C   0  0  0  0  0  0  0  0  0  0  0  0
   -2.7259    7.0599    1.0512 C   0  0  0  0  0  0  0  0  0  0  0  0
   -3.5698    7.1773   -0.0349 C   0  0  0  0  0  0  0  0  0  0  0  0
   -3.5096    6.3441   -1.1278 C   0  0  0  0  0  0  0  0  0  0  0  0
   -2.5333    5.3432   -1.1001 C   0  0  0  0  0  0  0  0  0  0  0  0
   -4.3895    8.2346    0.2326 N   0  0  0  0  0  0  0  0  0  0  0  0
   -4.0345    8.7437    1.4598 C   0  0  0  0  0  0  0  0  0  0  0  0
   -4.5678    9.7023    1.9987 O   0  0  0  0  0  0  0  0  0  0  0  0
   -2.9755    8.0175    2.0218 O   0  0  0  0  0  0  0  0  0  0  0  0
    2.7569    0.0848    1.8492 H   0  0  0  0  0  0  0  0  0  0  0  0
    2.8892   -1.3170    0.7884 H   0  0  0  0  0  0  0  0  0  0  0  0
    1.8805   -1.4105    2.2547 H   0  0  0  0  0  0  0  0  0  0  0  0
    0.7843    1.5335    1.7728 H   0  0  0  0  0  0  0  0  0  0  0  0
   -1.0304   -1.2855   -1.8850 H   0  0  0  0  0  0  0  0  0  0  0  0
    0.9334   -2.0356   -0.6196 H   0  0  0  0  0  0  0  0  0  0  0  0
   -2.2752    1.9853   -2.0526 H   0  0  0  0  0  0  0  0  0  0  0  0
   -3.3351    1.0854   -0.9317 H   0  0  0  0  0  0  0  0  0  0  0  0
   -2.6956    0.3061   -2.3833 H   0  0  0  0  0  0  0  0  0  0  0  0
   -1.3947    2.7219    1.5812 H   0  0  0  0  0  0  0  0  0  0  0  0
   -1.0908    6.0083    1.9641 H   0  0  0  0  0  0  0  0  0  0  0  0
   -4.1760    6.4554   -1.9749 H   0  0  0  0  0  0  0  0  0  0  0  0
   -2.4350    4.6639   -1.9460 H   0  0  0  0  0  0  0  0  0  0  0  0
   -5.1266    8.6154   -0.3372 H   0  0  0  0  0  0  0  0  0  0  0  0
  1  2  1  0  0  0  0
  1 23  1  0  0  0  0
  1 24  1  0  0  0  0
  1 25  1  0  0  0  0
  2  3  2  0  0  0  0
  2  7  1  0  0  0  0
  3  4  1  0  0  0  0
  3 26  1  0  0  0  0
  4  5  2  0  0  0  0
  4  9  1  0  0  0  0
  5  6  1  0  0  0  0
  5  8  1  0  0  0  0
  6  7  2  0  0  0  0
  6 27  1  0  0  0  0
  7 28  1  0  0  0  0
  8 29  1  0  0  0  0
  8 30  1  0  0  0  0
  8 31  1  0  0  0  0
  9 10  1  0  0  0  0
  9 32  1  0  0  0  0
 10 11  2  0  0  0  0
 10 12  2  0  0  0  0
 10 13  1  0  0  0  0
 13 14  2  0  0  0  0
 13 18  1  0  0  0  0
 14 15  1  0  0  0  0
 14 33  1  0  0  0  0
 15 16  2  0  0  0  0
 15 22  1  0  0  0  0
 16 17  1  0  0  0  0
 16 19  1  0  0  0  0
 17 18  2  0  0  0  0
 17 34  1  0  0  0  0
 18 35  1  0  0  0  0
 19 20  1  0  0  0  0
 19 36  1  0  0  0  0
 20 21  2  0  0  0  0
 20 22  1  0  0  0  0
M  END
