
 OpenBabel10072619483D

 43 45  0  0  0  0  0  0  0  0999 V2000
    6.9057    6.4483   -7.4972 C   0  0  0  0  0  0  0  0  0  0  0  0
    6.7600    4.9446   -7.3397 C   0  0  0  0  0  0  0  0  0  0  0  0
    6.1948    4.5926   -6.0515 N   0  0  0  0  0  0  0  0  0  0  0  0
    4.8942    4.2965   -5.7799 C   0  0  0  0  0  0  0  0  0  0  0  0
    4.8295    4.1359   -4.4126 C   0  0  0  0  0  0  0  0  0  0  0  0
    6.1463    4.3513   -3.9424 C   0  0  0  0  0  0  0  0  0  0  0  0
    6.9802    4.6157   -4.9594 N   0  0  0  0  0  0  0  0  0  0  0  0
    6.6835    4.3804   -2.5594 C   0  0  0  0  0  0  0  0  0  0  0  0
    3.4215    3.8653   -3.4586 S   0  0  0  0  0  0  0  0  0  0  0  0
    2.3547    3.6558   -4.4151 O   0  0  0  0  0  0  0  0  0  0  0  0
    3.8197    2.8352   -2.5246 O   0  0  0  0  0  0  0  0  0  0  0  0
    3.1349    5.2709   -2.5763 N   0  0  0  0  0  0  0  0  0  0  0  0
    3.0112    6.4626   -3.2685 C   0  0  0  0  0  0  0  0  0  0  0  0
    3.8231    7.4744   -2.9784 N   0  0  0  0  0  0  0  0  0  0  0  0
    3.4539    8.4450   -3.8475 N   0  0  0  0  0  0  0  0  0  0  0  0
    2.4163    8.0671   -4.6553 C   0  0  0  0  0  0  0  0  0  0  0  0
    2.1087    6.7770   -4.2994 C   0  0  0  0  0  0  0  0  0  0  0  0
    4.2459    9.6624   -3.9828 C   0  0  0  0  0  0  0  0  0  0  0  0
    4.2119   10.5298   -2.7495 C   0  0  0  0  0  0  0  0  0  0  0  0
    5.1384   10.3170   -1.7154 C   0  0  0  0  0  0  0  0  0  0  0  0
    5.1241   11.1155   -0.5708 C   0  0  0  0  0  0  0  0  0  0  0  0
    4.1812   12.1324   -0.4526 C   0  0  0  0  0  0  0  0  0  0  0  0
    3.2474   12.3505   -1.4644 C   0  0  0  0  0  0  0  0  0  0  0  0
    3.2604   11.5509   -2.6105 C   0  0  0  0  0  0  0  0  0  0  0  0
    4.1648   13.1222    0.9538 Cl  0  0  0  0  0  0  0  0  0  0  0  0
    7.2968    6.6917   -8.4892 H   0  0  0  0  0  0  0  0  0  0  0  0
    7.5909    6.8611   -6.7488 H   0  0  0  0  0  0  0  0  0  0  0  0
    5.9412    6.9523   -7.3747 H   0  0  0  0  0  0  0  0  0  0  0  0
    7.7328    4.4475   -7.4199 H   0  0  0  0  0  0  0  0  0  0  0  0
    6.1041    4.5399   -8.1178 H   0  0  0  0  0  0  0  0  0  0  0  0
    4.1298    4.2582   -6.5456 H   0  0  0  0  0  0  0  0  0  0  0  0
    5.9581    4.0498   -1.8137 H   0  0  0  0  0  0  0  0  0  0  0  0
    6.9796    5.4029   -2.3019 H   0  0  0  0  0  0  0  0  0  0  0  0
    7.5662    3.7380   -2.4724 H   0  0  0  0  0  0  0  0  0  0  0  0
    3.7892    5.3539   -1.8024 H   0  0  0  0  0  0  0  0  0  0  0  0
    2.0067    8.7245   -5.4106 H   0  0  0  0  0  0  0  0  0  0  0  0
    1.3417    6.1484   -4.7290 H   0  0  0  0  0  0  0  0  0  0  0  0
    3.8710   10.2153   -4.8525 H   0  0  0  0  0  0  0  0  0  0  0  0
    5.2708    9.3519   -4.2172 H   0  0  0  0  0  0  0  0  0  0  0  0
    5.8710    9.5150   -1.7942 H   0  0  0  0  0  0  0  0  0  0  0  0
    5.8448   10.9333    0.2221 H   0  0  0  0  0  0  0  0  0  0  0  0
    2.5052   13.1381   -1.3648 H   0  0  0  0  0  0  0  0  0  0  0  0
    2.5233   11.7325   -3.3902 H   0  0  0  0  0  0  0  0  0  0  0  0
  1  2  1  0  0  0  0
  1 26  1  0  0  0  0
  1 27  1  0  0  0  0
  1 28  1  0  0  0  0
  2  3  1  0  0  0  0
  2 29  1  0  0  0  0
  2 30  1  0  0  0  0
  3  4  1  0  0  0  0
  3  7  1  0  0  0  0
  4  5  2  0  0  0  0
  4 31  1  0  0  0  0
  5  6  1  0  0  0  0
  5  9  1  0  0  0  0
  6  7  2  0  0  0  0
  6  8  1  0  0  0  0
  8 32  1  0  0  0  0
  8 33  1  0  0  0  0
  8 34  1  0  0  0  0
  9 10  2  0  0  0  0
  9 11  2  0  0  0  0
  9 12  1  0  0  0  0
 12 13  1  0  0  0  0
 12 35  1  0  0  0  0
 13 14  2  0  0  0  0
 13 17  1  0  0  0  0
 14 15  1  0  0  0  0
 15 16  1  0  0  0  0
 15 18  1  0  0  0  0
 16 17  2  0  0  0  0
 16 36  1  0  0  0  0
 17 37  1  0  0  0  0
 18 19  1  0  0  0  0
 18 38  1  0  0  0  0
 18 39  1  0  0  0  0
 19 20  2  0  0  0  0
 19 24  1  0  0  0  0
 20 21  1  0  0  0  0
 20 40  1  0  0  0  0
 21 22  2  0  0  0  0
 21 41  1  0  0  0  0
 22 23  1  0  0  0  0
 22 25  1  0  0  0  0
 23 24  2  0  0  0  0
 23 42  1  0  0  0  0
 24 43  1  0  0  0  0
M  END
