
 OpenBabel10072620233D

 92 97  0  0  0  0  0  0  0  0999 V2000
    0.4377    1.2984   -6.2503 C   0  0  0  0  0  0  0  0  0  0  0  0
    1.6736    0.9686   -5.4300 C   0  0  0  0  0  0  0  0  0  0  0  0
    1.3175    1.1092   -4.0453 O   0  0  0  0  0  0  0  0  0  0  0  0
    1.4610    2.3561   -3.5258 C   0  0  0  0  0  0  0  0  0  0  0  0
    2.1461    3.2516   -3.9925 O   0  0  0  0  0  0  0  0  0  0  0  0
    0.5324    2.5543   -2.3731 C   0  0  0  0  0  0  0  0  0  0  0  0
    0.5082    3.8201   -1.7193 C   0  0  0  0  0  0  0  0  0  0  0  0
   -0.4141    4.0952   -0.6958 C   0  0  0  0  0  0  0  0  0  0  0  0
   -1.3425    3.0723   -0.4035 C   0  0  0  0  0  0  0  0  0  0  0  0
   -1.3164    1.8126   -1.0220 C   0  0  0  0  0  0  0  0  0  0  0  0
   -0.3687    1.5454   -2.0002 C   0  0  0  0  0  0  0  0  0  0  0  0
   -0.5441    5.2906    0.0856 N   0  0  0  0  0  0  0  0  0  0  0  0
    0.2869    6.2215   -0.0442 N   0  0  0  0  0  0  0  0  0  0  0  0
    0.0303    7.3183    0.8862 C   0  0  0  0  0  0  0  0  0  0  0  0
   -1.0496    8.2008    0.8222 C   0  0  0  0  0  0  0  0  0  0  0  0
   -1.0229    9.4856    1.4909 C   0  0  0  0  0  0  0  0  0  0  0  0
    0.0006    9.8850    2.3977 C   0  0  0  0  0  0  0  0  0  0  0  0
    0.0425   11.1003    3.2364 C   0  0  0  0  0  0  0  0  0  0  0  0
   -0.4460   10.9890    4.5300 C   0  0  0  0  0  0  0  0  0  0  0  0
   -0.4050    9.6550    4.9309 C   0  0  0  0  0  0  0  0  0  0  0  0
    0.4860    8.6930    4.2629 C   0  0  0  0  0  0  0  0  0  0  0  0
    0.6774    8.7867    2.8495 C   0  0  0  0  0  0  0  0  0  0  0  0
    0.9360    7.6827    1.9109 C   0  0  0  0  0  0  0  0  0  0  0  0
    2.1636    7.0600    1.9443 O   0  0  0  0  0  0  0  0  0  0  0  0
   -0.9492   12.0880    5.3864 N   0  0  0  0  0  0  0  0  0  0  0  0
   -0.4036   13.4153    5.4815 C   0  0  0  0  0  0  0  0  0  0  0  0
    0.6652   13.7225    4.9708 O   0  0  0  0  0  0  0  0  0  0  0  0
   -1.2703   14.3096    6.2344 N   0  0  0  0  0  0  0  0  0  0  0  0
   -1.0694   15.7742    6.4147 C   0  0  0  0  0  0  0  0  0  0  0  0
   -2.0468   16.7456    5.9967 C   0  0  0  0  0  0  0  0  0  0  0  0
   -1.7784   18.1939    5.9479 C   0  0  0  0  0  0  0  0  0  0  0  0
   -2.4416   19.2480    5.2268 C   0  0  0  0  0  0  0  0  0  0  0  0
   -2.0689   19.3401    3.8808 C   0  0  0  0  0  0  0  0  0  0  0  0
   -1.0155   18.5467    3.5213 C   0  0  0  0  0  0  0  0  0  0  0  0
   -0.0403   18.6143    4.5755 C   0  0  0  0  0  0  0  0  0  0  0  0
   -0.4486   18.4216    5.9458 C   0  0  0  0  0  0  0  0  0  0  0  0
    0.2895   17.7209    6.9138 C   0  0  0  0  0  0  0  0  0  0  0  0
    0.0071   16.3484    7.1037 C   0  0  0  0  0  0  0  0  0  0  0  0
    0.7722   19.7920    4.4329 O   0  0  0  0  0  0  0  0  0  0  0  0
   -1.3094   17.3587    2.7265 N   0  0  0  0  0  0  0  0  0  0  0  0
   -2.5536   17.2657    2.4289 N   0  0  0  0  0  0  0  0  0  0  0  0
   -2.9277   16.2043    1.5464 C   0  0  0  0  0  0  0  0  0  0  0  0
   -2.1774   15.0432    1.4603 C   0  0  0  0  0  0  0  0  0  0  0  0
   -2.4224   14.1089    0.4700 C   0  0  0  0  0  0  0  0  0  0  0  0
   -3.4663   14.2778   -0.4257 C   0  0  0  0  0  0  0  0  0  0  0  0
   -4.3645   15.3296   -0.2849 C   0  0  0  0  0  0  0  0  0  0  0  0
   -4.1028   16.2711    0.7342 C   0  0  0  0  0  0  0  0  0  0  0  0
   -5.4525   15.3564   -1.3260 C   0  0  0  0  0  0  0  0  0  0  0  0
   -5.3718   14.6420   -2.3308 O   0  0  0  0  0  0  0  0  0  0  0  0
   -6.4954   16.1874   -1.0873 O   0  0  0  0  0  0  0  0  0  0  0  0
   -7.5588   16.1620   -2.0857 C   0  0  0  0  0  0  0  0  0  0  0  0
   -7.3185   17.1847   -3.1902 C   0  0  0  0  0  0  0  0  0  0  0  0
   -2.2598   20.7089    2.7910 S   0  0  0  0  0  0  0  0  0  0  0  0
   -1.1873   20.6965    1.8130 O   0  0  0  0  0  0  0  0  0  0  0  0
   -3.6410   20.7613    2.3791 O   0  0  0  0  0  0  0  0  0  0  0  0
   -1.9341   22.0270    3.6622 O   0  0  0  0  0  0  0  0  0  0  0  0
   -2.5338    7.7136   -0.0205 S   0  0  0  0  0  0  0  0  0  0  0  0
   -2.9764    6.4516    0.5005 O   0  0  0  0  0  0  0  0  0  0  0  0
   -3.4279    8.8624   -0.0082 O   0  0  0  0  0  0  0  0  0  0  0  0
   -2.0651    7.4715   -1.5461 O   0  0  0  0  0  0  0  0  0  0  0  0
    0.6285    1.2122   -7.3224 H   0  0  0  0  0  0  0  0  0  0  0  0
    0.0867    2.3132   -6.0331 H   0  0  0  0  0  0  0  0  0  0  0  0
   -0.3825    0.6238   -5.9795 H   0  0  0  0  0  0  0  0  0  0  0  0
    2.5259    1.5994   -5.7072 H   0  0  0  0  0  0  0  0  0  0  0  0
    1.9685   -0.0729   -5.5978 H   0  0  0  0  0  0  0  0  0  0  0  0
    1.2166    4.5799   -2.0393 H   0  0  0  0  0  0  0  0  0  0  0  0
   -2.1170    3.2612    0.3392 H   0  0  0  0  0  0  0  0  0  0  0  0
   -2.0387    1.0467   -0.7425 H   0  0  0  0  0  0  0  0  0  0  0  0
   -0.3673    0.5653   -2.4776 H   0  0  0  0  0  0  0  0  0  0  0  0
   -1.8740   10.1585    1.3816 H   0  0  0  0  0  0  0  0  0  0  0  0
    1.0812   11.5044    3.3184 H   0  0  0  0  0  0  0  0  0  0  0  0
   -1.3425    9.2331    5.3110 H   0  0  0  0  0  0  0  0  0  0  0  0
    0.6959    7.7475    4.7504 H   0  0  0  0  0  0  0  0  0  0  0  0
    2.8323    7.7684    1.9137 H   0  0  0  0  0  0  0  0  0  0  0  0
   -1.4377   11.8070    6.2288 H   0  0  0  0  0  0  0  0  0  0  0  0
   -2.2332   14.0556    6.0619 H   0  0  0  0  0  0  0  0  0  0  0  0
   -2.9875   16.4355    5.5504 H   0  0  0  0  0  0  0  0  0  0  0  0
   -2.5805   20.2316    5.7138 H   0  0  0  0  0  0  0  0  0  0  0  0
    0.9916   18.2548    7.5583 H   0  0  0  0  0  0  0  0  0  0  0  0
    0.5910   15.8072    7.8438 H   0  0  0  0  0  0  0  0  0  0  0  0
    0.8978   20.1999    5.3096 H   0  0  0  0  0  0  0  0  0  0  0  0
   -1.3800   14.8591    2.1669 H   0  0  0  0  0  0  0  0  0  0  0  0
   -1.7774   13.2493    0.3718 H   0  0  0  0  0  0  0  0  0  0  0  0
   -3.5718   13.5648   -1.2342 H   0  0  0  0  0  0  0  0  0  0  0  0
   -4.8081   17.0748    0.8896 H   0  0  0  0  0  0  0  0  0  0  0  0
   -8.4887   16.4179   -1.5671 H   0  0  0  0  0  0  0  0  0  0  0  0
   -7.7164   15.1589   -2.5110 H   0  0  0  0  0  0  0  0  0  0  0  0
   -7.0017   18.1418   -2.7669 H   0  0  0  0  0  0  0  0  0  0  0  0
   -8.2242   17.3528   -3.7866 H   0  0  0  0  0  0  0  0  0  0  0  0
   -6.5316   16.8517   -3.8747 H   0  0  0  0  0  0  0  0  0  0  0  0
   -1.2313   22.5008    3.1627 H   0  0  0  0  0  0  0  0  0  0  0  0
   -1.7069    6.5599   -1.6117 H   0  0  0  0  0  0  0  0  0  0  0  0
  1  2  1  0  0  0  0
  1 61  1  0  0  0  0
  1 62  1  0  0  0  0
  1 63  1  0  0  0  0
  2  3  1  0  0  0  0
  2 64  1  0  0  0  0
  2 65  1  0  0  0  0
  3  4  1  0  0  0  0
  4  5  2  0  0  0  0
  4  6  1  0  0  0  0
  6  7  2  0  0  0  0
  6 11  1  0  0  0  0
  7  8  1  0  0  0  0
  7 66  1  0  0  0  0
  8  9  2  0  0  0  0
  8 12  1  0  0  0  0
  9 10  1  0  0  0  0
  9 67  1  0  0  0  0
 10 11  2  0  0  0  0
 10 68  1  0  0  0  0
 11 69  1  0  0  0  0
 12 13  2  3  0  0  0
 13 14  1  0  0  0  0
 14 15  2  0  0  0  0
 14 23  1  0  0  0  0
 15 16  1  0  0  0  0
 15 57  1  0  0  0  0
 16 17  2  0  0  0  0
 16 70  1  0  0  0  0
 17 18  1  0  0  0  0
 17 22  1  0  0  0  0
 18 19  2  0  0  0  0
 18 71  1  0  0  0  0
 19 20  1  0  0  0  0
 19 25  1  0  0  0  0
 20 21  2  0  0  0  0
 20 72  1  0  0  0  0
 21 22  1  0  0  0  0
 21 73  1  0  0  0  0
 22 23  2  0  0  0  0
 23 24  1  0  0  0  0
 24 74  1  0  0  0  0
 25 26  1  0  0  0  0
 25 75  1  0  0  0  0
 26 27  2  0  0  0  0
 26 28  1  0  0  0  0
 28 29  1  0  0  0  0
 28 76  1  0  0  0  0
 29 30  2  0  0  0  0
 29 38  1  0  0  0  0
 30 31  1  0  0  0  0
 30 77  1  0  0  0  0
 31 32  2  0  0  0  0
 31 36  1  0  0  0  0
 32 33  1  0  0  0  0
 32 78  1  0  0  0  0
 33 34  2  0  0  0  0
 33 53  1  0  0  0  0
 34 35  1  0  0  0  0
 34 40  1  0  0  0  0
 35 36  2  0  0  0  0
 35 39  1  0  0  0  0
 36 37  1  0  0  0  0
 37 38  2  0  0  0  0
 37 79  1  0  0  0  0
 38 80  1  0  0  0  0
 39 81  1  0  0  0  0
 40 41  2  3  0  0  0
 41 42  1  0  0  0  0
 42 43  2  0  0  0  0
 42 47  1  0  0  0  0
 43 44  1  0  0  0  0
 43 82  1  0  0  0  0
 44 45  2  0  0  0  0
 44 83  1  0  0  0  0
 45 46  1  0  0  0  0
 45 84  1  0  0  0  0
 46 47  2  0  0  0  0
 46 48  1  0  0  0  0
 47 85  1  0  0  0  0
 48 49  2  0  0  0  0
 48 50  1  0  0  0  0
 50 51  1  0  0  0  0
 51 52  1  0  0  0  0
 51 86  1  0  0  0  0
 51 87  1  0  0  0  0
 52 88  1  0  0  0  0
 52 89  1  0  0  0  0
 52 90  1  0  0  0  0
 53 54  2  0  0  0  0
 53 55  2  0  0  0  0
 53 56  1  0  0  0  0
 56 91  1  0  0  0  0
 57 58  2  0  0  0  0
 57 59  2  0  0  0  0
 57 60  1  0  0  0  0
 60 92  1  0  0  0  0
M  END
