
 OpenBabel10072620073D

 40 39  0  0  1  0  0  0  0  0999 V2000
    3.2732   -2.5462   -1.4673 C   0  0  0  0  0  0  0  0  0  0  0  0
    4.5573   -1.8349   -1.7975 C   0  0  0  0  0  0  0  0  0  0  0  0
    4.8088   -1.1804   -2.9528 C   0  0  0  0  0  0  0  0  0  0  0  0
    3.8976   -1.0667   -4.1506 C   0  0  0  0  0  0  0  0  0  0  0  0
    3.1033    0.2436   -4.1209 C   0  0  0  0  0  0  0  0  0  0  0  0
    1.8941    0.3558   -5.0873 C   0  0  3  0  0  0  0  0  0  0  0  0
    0.8797   -0.7922   -4.9276 C   0  0  0  0  0  0  0  0  0  0  0  0
    1.2607    1.7180   -4.7868 C   0  0  0  0  0  0  0  0  0  0  0  0
    0.0511    1.9911   -4.2715 C   0  0  0  0  0  0  0  0  0  0  0  0
    2.3027    0.5231   -6.4747 O   0  0  0  0  0  0  0  0  0  0  0  0
    2.6887   -0.5078   -7.2625 C   0  0  0  0  0  0  0  0  0  0  0  0
    2.8340   -1.6718   -6.9090 O   0  0  0  0  0  0  0  0  0  0  0  0
    2.8150   -0.0652   -8.6865 C   0  0  0  0  0  0  0  0  0  0  0  0
    4.0097    0.7941   -8.9421 C   0  0  0  0  0  0  0  0  0  0  0  0
    4.9308    0.9922   -8.1635 O   0  0  0  0  0  0  0  0  0  0  0  0
    3.9409    1.2811  -10.2158 O   0  0  0  0  0  0  0  0  0  0  0  0
    5.0784    2.0382  -10.6371 C   0  0  0  0  0  0  0  0  0  0  0  0
    5.5871   -1.8840   -0.6994 C   0  0  0  0  0  0  0  0  0  0  0  0
    2.5050   -2.4354   -2.2360 H   0  0  0  0  0  0  0  0  0  0  0  0
    2.8534   -2.1520   -0.5341 H   0  0  0  0  0  0  0  0  0  0  0  0
    3.4610   -3.6171   -1.3359 H   0  0  0  0  0  0  0  0  0  0  0  0
    5.7691   -0.6785   -3.0704 H   0  0  0  0  0  0  0  0  0  0  0  0
    3.2437   -1.9407   -4.2053 H   0  0  0  0  0  0  0  0  0  0  0  0
    4.5273   -1.0876   -5.0480 H   0  0  0  0  0  0  0  0  0  0  0  0
    3.8074    1.0619   -4.3338 H   0  0  0  0  0  0  0  0  0  0  0  0
    2.7400    0.4079   -3.0953 H   0  0  0  0  0  0  0  0  0  0  0  0
    0.4740   -0.8400   -3.9110 H   0  0  0  0  0  0  0  0  0  0  0  0
    1.3121   -1.7741   -5.1366 H   0  0  0  0  0  0  0  0  0  0  0  0
    0.0506   -0.6805   -5.6367 H   0  0  0  0  0  0  0  0  0  0  0  0
    1.8985    2.5705   -5.0202 H   0  0  0  0  0  0  0  0  0  0  0  0
   -0.6584    1.2218   -3.9979 H   0  0  0  0  0  0  0  0  0  0  0  0
   -0.2548    3.0226   -4.1184 H   0  0  0  0  0  0  0  0  0  0  0  0
    1.8976    0.4626   -8.9735 H   0  0  0  0  0  0  0  0  0  0  0  0
    2.9043   -0.9577   -9.3164 H   0  0  0  0  0  0  0  0  0  0  0  0
    4.8196    2.5462  -11.5712 H   0  0  0  0  0  0  0  0  0  0  0  0
    5.9140    1.3606  -10.8319 H   0  0  0  0  0  0  0  0  0  0  0  0
    5.3596    2.7945   -9.8980 H   0  0  0  0  0  0  0  0  0  0  0  0
    5.8045   -2.9230   -0.4292 H   0  0  0  0  0  0  0  0  0  0  0  0
    5.2164   -1.3649    0.1911 H   0  0  0  0  0  0  0  0  0  0  0  0
    6.5327   -1.4162   -0.9923 H   0  0  0  0  0  0  0  0  0  0  0  0
  1  2  1  0  0  0  0
  1 19  1  0  0  0  0
  1 20  1  0  0  0  0
  1 21  1  0  0  0  0
  2  3  2  0  0  0  0
  2 18  1  0  0  0  0
  3  4  1  0  0  0  0
  3 22  1  0  0  0  0
  4  5  1  0  0  0  0
  4 23  1  0  0  0  0
  4 24  1  0  0  0  0
  5  6  1  0  0  0  0
  5 25  1  0  0  0  0
  5 26  1  0  0  0  0
  6  7  1  0  0  0  0
  6  8  1  0  0  0  0
  6 10  1  0  0  0  0
  7 27  1  0  0  0  0
  7 28  1  0  0  0  0
  7 29  1  0  0  0  0
  8  9  2  0  0  0  0
  8 30  1  0  0  0  0
  9 31  1  0  0  0  0
  9 32  1  0  0  0  0
 10 11  1  0  0  0  0
 11 12  2  0  0  0  0
 11 13  1  0  0  0  0
 13 14  1  0  0  0  0
 13 33  1  0  0  0  0
 13 34  1  0  0  0  0
 14 15  2  0  0  0  0
 14 16  1  0  0  0  0
 16 17  1  0  0  0  0
 17 35  1  0  0  0  0
 17 36  1  0  0  0  0
 17 37  1  0  0  0  0
 18 38  1  0  0  0  0
 18 39  1  0  0  0  0
 18 40  1  0  0  0  0
M  END
