
 OpenBabel10072620093D

 59 61  0  0  0  0  0  0  0  0999 V2000
    2.1552    0.2857   -1.4908 C   0  0  0  0  0  0  0  0  0  0  0  0
    0.6554    0.2495   -1.5447 C   0  0  0  0  0  0  0  0  0  0  0  0
   -0.0760   -0.5234   -0.6322 C   0  0  0  0  0  0  0  0  0  0  0  0
   -1.4698   -0.5761   -0.7042 C   0  0  0  0  0  0  0  0  0  0  0  0
   -2.1340    0.1555   -1.6907 C   0  0  0  0  0  0  0  0  0  0  0  0
   -1.4170    0.9191   -2.6164 C   0  0  0  0  0  0  0  0  0  0  0  0
   -0.0249    0.9717   -2.5349 C   0  0  0  0  0  0  0  0  0  0  0  0
   -3.8957    0.0641   -1.8276 S   0  0  0  0  0  0  0  0  0  0  0  0
   -4.2480    0.1621   -3.2284 O   0  0  0  0  0  0  0  0  0  0  0  0
   -4.3862   -1.0240   -1.0066 O   0  0  0  0  0  0  0  0  0  0  0  0
   -4.3900    1.5051   -1.0865 N   0  0  0  0  0  0  0  0  0  0  0  0
   -5.7951    1.5896   -0.7064 N   0  0  0  0  0  0  0  0  0  0  0  0
   -6.3861    2.8274   -0.6267 C   0  0  0  0  0  0  0  0  0  0  0  0
   -5.7716    3.8826   -0.7964 O   0  0  0  0  0  0  0  0  0  0  0  0
   -7.8515    2.8507   -0.2718 C   0  0  0  0  0  0  0  0  0  0  0  0
   -8.6683    1.8679   -0.7020 C   0  0  0  0  0  0  0  0  0  0  0  0
  -10.1331    1.9448   -0.7618 C   0  0  0  0  0  0  0  0  0  0  0  0
  -10.7262    2.5676   -1.8649 C   0  0  0  0  0  0  0  0  0  0  0  0
  -12.1169    2.6421   -1.9793 C   0  0  0  0  0  0  0  0  0  0  0  0
  -12.9338    2.0950   -0.9905 C   0  0  0  0  0  0  0  0  0  0  0  0
  -12.3372    1.4663    0.1106 C   0  0  0  0  0  0  0  0  0  0  0  0
  -10.9456    1.3823    0.2208 C   0  0  0  0  0  0  0  0  0  0  0  0
  -14.3423    2.1315   -1.0248 N   0  0  0  0  0  0  0  0  0  0  0  0
  -15.1474    2.7236   -1.9811 C   0  0  0  0  0  0  0  0  0  0  0  0
  -14.7835    3.3327   -2.9810 O   0  0  0  0  0  0  0  0  0  0  0  0
  -16.6177    2.5871   -1.6652 C   0  0  0  0  0  0  0  0  0  0  0  0
   -8.2745    4.0229    0.3306 N   0  0  0  0  0  0  0  0  0  0  0  0
   -9.0509    4.0635    1.4772 C   0  0  0  0  0  0  0  0  0  0  0  0
   -9.3625    3.1030    2.1665 O   0  0  0  0  0  0  0  0  0  0  0  0
   -9.4184    5.4312    1.9190 C   0  0  0  0  0  0  0  0  0  0  0  0
   -9.9170    6.3582    0.9959 C   0  0  0  0  0  0  0  0  0  0  0  0
  -10.2733    7.6383    1.4228 C   0  0  0  0  0  0  0  0  0  0  0  0
  -10.1306    7.9912    2.7660 C   0  0  0  0  0  0  0  0  0  0  0  0
   -9.6300    7.0676    3.6862 C   0  0  0  0  0  0  0  0  0  0  0  0
   -9.2835    5.7809    3.2674 C   0  0  0  0  0  0  0  0  0  0  0  0
    2.5423   -0.3184   -0.6635 H   0  0  0  0  0  0  0  0  0  0  0  0
    2.5032    1.3134   -1.3486 H   0  0  0  0  0  0  0  0  0  0  0  0
    2.5748   -0.1134   -2.4204 H   0  0  0  0  0  0  0  0  0  0  0  0
    0.4383   -1.0951    0.1380 H   0  0  0  0  0  0  0  0  0  0  0  0
   -2.0216   -1.1952    0.0001 H   0  0  0  0  0  0  0  0  0  0  0  0
   -1.9286    1.4588   -3.4103 H   0  0  0  0  0  0  0  0  0  0  0  0
    0.5302    1.5713   -3.2543 H   0  0  0  0  0  0  0  0  0  0  0  0
   -3.9588    2.3764   -1.4177 H   0  0  0  0  0  0  0  0  0  0  0  0
   -6.2805    0.7082   -0.5477 H   0  0  0  0  0  0  0  0  0  0  0  0
   -8.2858    1.0026   -1.2358 H   0  0  0  0  0  0  0  0  0  0  0  0
  -10.1108    2.9963   -2.6528 H   0  0  0  0  0  0  0  0  0  0  0  0
  -12.5269    3.1320   -2.8565 H   0  0  0  0  0  0  0  0  0  0  0  0
  -12.9432    1.0407    0.9060 H   0  0  0  0  0  0  0  0  0  0  0  0
  -10.5063    0.9017    1.0918 H   0  0  0  0  0  0  0  0  0  0  0  0
  -14.8098    1.6857   -0.2454 H   0  0  0  0  0  0  0  0  0  0  0  0
  -16.8103    1.7650   -0.9693 H   0  0  0  0  0  0  0  0  0  0  0  0
  -17.1653    2.3823   -2.5904 H   0  0  0  0  0  0  0  0  0  0  0  0
  -16.9729    3.5225   -1.2234 H   0  0  0  0  0  0  0  0  0  0  0  0
   -7.6290    4.8052    0.2320 H   0  0  0  0  0  0  0  0  0  0  0  0
  -10.0604    6.0818   -0.0461 H   0  0  0  0  0  0  0  0  0  0  0  0
  -10.6754    8.3565    0.7117 H   0  0  0  0  0  0  0  0  0  0  0  0
  -10.4150    8.9875    3.0976 H   0  0  0  0  0  0  0  0  0  0  0  0
   -9.5201    7.3481    4.7315 H   0  0  0  0  0  0  0  0  0  0  0  0
   -8.9074    5.0578    3.9885 H   0  0  0  0  0  0  0  0  0  0  0  0
  1  2  1  0  0  0  0
  1 36  1  0  0  0  0
  1 37  1  0  0  0  0
  1 38  1  0  0  0  0
  2  3  2  0  0  0  0
  2  7  1  0  0  0  0
  3  4  1  0  0  0  0
  3 39  1  0  0  0  0
  4  5  2  0  0  0  0
  4 40  1  0  0  0  0
  5  6  1  0  0  0  0
  5  8  1  0  0  0  0
  6  7  2  0  0  0  0
  6 41  1  0  0  0  0
  7 42  1  0  0  0  0
  8  9  2  0  0  0  0
  8 10  2  0  0  0  0
  8 11  1  0  0  0  0
 11 12  1  0  0  0  0
 11 43  1  0  0  0  0
 12 13  1  0  0  0  0
 12 44  1  0  0  0  0
 13 14  2  0  0  0  0
 13 15  1  0  0  0  0
 15 16  2  0  0  0  0
 15 27  1  0  0  0  0
 16 17  1  0  0  0  0
 16 45  1  0  0  0  0
 17 18  2  0  0  0  0
 17 22  1  0  0  0  0
 18 19  1  0  0  0  0
 18 46  1  0  0  0  0
 19 20  2  0  0  0  0
 19 47  1  0  0  0  0
 20 21  1  0  0  0  0
 20 23  1  0  0  0  0
 21 22  2  0  0  0  0
 21 48  1  0  0  0  0
 22 49  1  0  0  0  0
 23 24  1  0  0  0  0
 23 50  1  0  0  0  0
 24 25  2  0  0  0  0
 24 26  1  0  0  0  0
 26 51  1  0  0  0  0
 26 52  1  0  0  0  0
 26 53  1  0  0  0  0
 27 28  1  0  0  0  0
 27 54  1  0  0  0  0
 28 29  2  0  0  0  0
 28 30  1  0  0  0  0
 30 31  2  0  0  0  0
 30 35  1  0  0  0  0
 31 32  1  0  0  0  0
 31 55  1  0  0  0  0
 32 33  2  0  0  0  0
 32 56  1  0  0  0  0
 33 34  1  0  0  0  0
 33 57  1  0  0  0  0
 34 35  2  0  0  0  0
 34 58  1  0  0  0  0
 35 59  1  0  0  0  0
M  END
