
 OpenBabel10072620033D

 73 76  0  0  0  0  0  0  0  0999 V2000
    4.5034    3.5909   -4.8849 C   0  0  0  0  0  0  0  0  0  0  0  0
    4.4660    4.1695   -3.4803 C   0  0  0  0  0  0  0  0  0  0  0  0
    5.4482    3.4507   -2.5570 C   0  0  0  0  0  0  0  0  0  0  0  0
    5.3321    3.9638   -1.1210 C   0  0  0  0  0  0  0  0  0  0  0  0
    6.3306    3.2599   -0.2025 C   0  0  0  0  0  0  0  0  0  0  0  0
    6.1363    3.6737    1.2567 C   0  0  0  0  0  0  0  0  0  0  0  0
    7.0646    2.9150    2.2114 C   0  0  0  0  0  0  0  0  0  0  0  0
    8.4701    3.3116    2.1069 N   0  0  0  0  0  0  0  0  0  0  0  0
    9.4618    2.2444    1.8861 C   0  0  0  0  0  0  0  0  0  0  0  0
    9.7555    1.9037    0.4199 C   0  0  0  0  0  0  0  0  0  0  0  0
   10.4331    3.3284   -0.4926 S   0  0  0  0  0  0  0  0  0  0  0  0
   11.3645    2.5545   -1.7110 C   0  0  0  0  0  0  0  0  0  0  0  0
   11.5345    1.2750   -1.9121 N   0  0  0  0  0  0  0  0  0  0  0  0
   12.4386    1.1948   -2.9568 C   0  0  0  0  0  0  0  0  0  0  0  0
   12.7807    2.4625   -3.4153 C   0  0  0  0  0  0  0  0  0  0  0  0
   12.0738    3.3092   -2.5901 N   0  0  0  0  0  0  0  0  0  0  0  0
   13.6110    2.9684   -4.5009 C   0  0  0  0  0  0  0  0  0  0  0  0
   13.4440    2.4953   -5.8079 C   0  0  0  0  0  0  0  0  0  0  0  0
   14.2200    3.0056   -6.8520 C   0  0  0  0  0  0  0  0  0  0  0  0
   15.1677    3.9954   -6.5974 C   0  0  0  0  0  0  0  0  0  0  0  0
   15.3436    4.4727   -5.2997 C   0  0  0  0  0  0  0  0  0  0  0  0
   14.5695    3.9609   -4.2556 C   0  0  0  0  0  0  0  0  0  0  0  0
   12.9281   -0.0849   -3.4459 C   0  0  0  0  0  0  0  0  0  0  0  0
   12.0552   -1.1803   -3.4912 C   0  0  0  0  0  0  0  0  0  0  0  0
   12.5003   -2.4264   -3.9398 C   0  0  0  0  0  0  0  0  0  0  0  0
   13.8241   -2.5916   -4.3418 C   0  0  0  0  0  0  0  0  0  0  0  0
   14.7066   -1.5150   -4.2817 C   0  0  0  0  0  0  0  0  0  0  0  0
   14.2630   -0.2683   -3.8311 C   0  0  0  0  0  0  0  0  0  0  0  0
    8.8263    4.5592    2.6359 C   0  0  0  0  0  0  0  0  0  0  0  0
    8.0365    5.2472    3.2766 O   0  0  0  0  0  0  0  0  0  0  0  0
   10.1131    4.9386    2.3327 N   0  0  0  0  0  0  0  0  0  0  0  0
   10.8282    6.0300    2.8616 C   0  0  0  0  0  0  0  0  0  0  0  0
   11.9855    6.4433    2.1841 C   0  0  0  0  0  0  0  0  0  0  0  0
   12.7692    7.4889    2.6564 C   0  0  0  0  0  0  0  0  0  0  0  0
   12.3955    8.1226    3.8322 C   0  0  0  0  0  0  0  0  0  0  0  0
   11.2556    7.7325    4.5289 C   0  0  0  0  0  0  0  0  0  0  0  0
   10.4706    6.6825    4.0437 C   0  0  0  0  0  0  0  0  0  0  0  0
   13.1500    9.1190    4.3122 F   0  0  0  0  0  0  0  0  0  0  0  0
   12.3497    5.8238    1.0498 F   0  0  0  0  0  0  0  0  0  0  0  0
    3.8009    4.1228   -5.5336 H   0  0  0  0  0  0  0  0  0  0  0  0
    4.2256    2.5321   -4.8790 H   0  0  0  0  0  0  0  0  0  0  0  0
    5.5033    3.6810   -5.3202 H   0  0  0  0  0  0  0  0  0  0  0  0
    3.4477    4.0851   -3.0832 H   0  0  0  0  0  0  0  0  0  0  0  0
    4.7111    5.2371   -3.5231 H   0  0  0  0  0  0  0  0  0  0  0  0
    6.4713    3.5967   -2.9255 H   0  0  0  0  0  0  0  0  0  0  0  0
    5.2498    2.3717   -2.5752 H   0  0  0  0  0  0  0  0  0  0  0  0
    4.3118    3.7935   -0.7557 H   0  0  0  0  0  0  0  0  0  0  0  0
    5.5107    5.0459   -1.0963 H   0  0  0  0  0  0  0  0  0  0  0  0
    7.3456    3.5028   -0.5305 H   0  0  0  0  0  0  0  0  0  0  0  0
    6.2086    2.1737   -0.2899 H   0  0  0  0  0  0  0  0  0  0  0  0
    5.1019    3.4559    1.5487 H   0  0  0  0  0  0  0  0  0  0  0  0
    6.2694    4.7562    1.3572 H   0  0  0  0  0  0  0  0  0  0  0  0
    6.9721    1.8388    2.0300 H   0  0  0  0  0  0  0  0  0  0  0  0
    6.7401    3.0927    3.2439 H   0  0  0  0  0  0  0  0  0  0  0  0
    9.0945    1.3429    2.3926 H   0  0  0  0  0  0  0  0  0  0  0  0
   10.3963    2.4958    2.4025 H   0  0  0  0  0  0  0  0  0  0  0  0
    8.8497    1.5603   -0.0889 H   0  0  0  0  0  0  0  0  0  0  0  0
   10.4767    1.0794    0.4109 H   0  0  0  0  0  0  0  0  0  0  0  0
   12.0657    4.3176   -2.6285 H   0  0  0  0  0  0  0  0  0  0  0  0
   12.7036    1.7281   -6.0242 H   0  0  0  0  0  0  0  0  0  0  0  0
   14.0754    2.6373   -7.8651 H   0  0  0  0  0  0  0  0  0  0  0  0
   15.7661    4.3969   -7.4118 H   0  0  0  0  0  0  0  0  0  0  0  0
   16.0835    5.2443   -5.1005 H   0  0  0  0  0  0  0  0  0  0  0  0
   14.7318    4.3400   -3.2493 H   0  0  0  0  0  0  0  0  0  0  0  0
   11.0215   -1.0668   -3.1698 H   0  0  0  0  0  0  0  0  0  0  0  0
   11.8132   -3.2671   -3.9739 H   0  0  0  0  0  0  0  0  0  0  0  0
   14.1718   -3.5605   -4.6915 H   0  0  0  0  0  0  0  0  0  0  0  0
   15.7441   -1.6434   -4.5778 H   0  0  0  0  0  0  0  0  0  0  0  0
   14.9747    0.5518   -3.7731 H   0  0  0  0  0  0  0  0  0  0  0  0
   10.4815    4.5458    1.4731 H   0  0  0  0  0  0  0  0  0  0  0  0
   13.6546    7.8030    2.1169 H   0  0  0  0  0  0  0  0  0  0  0  0
   10.9821    8.2453    5.4463 H   0  0  0  0  0  0  0  0  0  0  0  0
    9.5940    6.3834    4.6120 H   0  0  0  0  0  0  0  0  0  0  0  0
  1  2  1  0  0  0  0
  1 40  1  0  0  0  0
  1 41  1  0  0  0  0
  1 42  1  0  0  0  0
  2  3  1  0  0  0  0
  2 43  1  0  0  0  0
  2 44  1  0  0  0  0
  3  4  1  0  0  0  0
  3 45  1  0  0  0  0
  3 46  1  0  0  0  0
  4  5  1  0  0  0  0
  4 47  1  0  0  0  0
  4 48  1  0  0  0  0
  5  6  1  0  0  0  0
  5 49  1  0  0  0  0
  5 50  1  0  0  0  0
  6  7  1  0  0  0  0
  6 51  1  0  0  0  0
  6 52  1  0  0  0  0
  7  8  1  0  0  0  0
  7 53  1  0  0  0  0
  7 54  1  0  0  0  0
  8  9  1  0  0  0  0
  8 29  1  0  0  0  0
  9 10  1  0  0  0  0
  9 55  1  0  0  0  0
  9 56  1  0  0  0  0
 10 11  1  0  0  0  0
 10 57  1  0  0  0  0
 10 58  1  0  0  0  0
 11 12  1  0  0  0  0
 12 13  2  0  0  0  0
 12 16  1  0  0  0  0
 13 14  1  0  0  0  0
 14 15  2  0  0  0  0
 14 23  1  0  0  0  0
 15 16  1  0  0  0  0
 15 17  1  0  0  0  0
 16 59  1  0  0  0  0
 17 18  2  0  0  0  0
 17 22  1  0  0  0  0
 18 19  1  0  0  0  0
 18 60  1  0  0  0  0
 19 20  2  0  0  0  0
 19 61  1  0  0  0  0
 20 21  1  0  0  0  0
 20 62  1  0  0  0  0
 21 22  2  0  0  0  0
 21 63  1  0  0  0  0
 22 64  1  0  0  0  0
 23 24  2  0  0  0  0
 23 28  1  0  0  0  0
 24 25  1  0  0  0  0
 24 65  1  0  0  0  0
 25 26  2  0  0  0  0
 25 66  1  0  0  0  0
 26 27  1  0  0  0  0
 26 67  1  0  0  0  0
 27 28  2  0  0  0  0
 27 68  1  0  0  0  0
 28 69  1  0  0  0  0
 29 30  2  0  0  0  0
 29 31  1  0  0  0  0
 31 32  1  0  0  0  0
 31 70  1  0  0  0  0
 32 33  2  0  0  0  0
 32 37  1  0  0  0  0
 33 34  1  0  0  0  0
 33 39  1  0  0  0  0
 34 35  2  0  0  0  0
 34 71  1  0  0  0  0
 35 36  1  0  0  0  0
 35 38  1  0  0  0  0
 36 37  2  0  0  0  0
 36 72  1  0  0  0  0
 37 73  1  0  0  0  0
M  END
