
 OpenBabel10072619533D

 71 75  0  0  1  0  0  0  0  0999 V2000
   10.0074   -0.7266   -4.8900 C   0  0  0  0  0  0  0  0  0  0  0  0
   10.4210   -2.0423   -4.5404 C   0  0  0  0  0  0  0  0  0  0  0  0
    9.5674   -2.8333   -3.8881 C   0  0  0  0  0  0  0  0  0  0  0  0
    8.2814   -2.3355   -3.5658 C   0  0  0  0  0  0  0  0  0  0  0  0
    8.0287   -0.9602   -3.6562 N   0  3  0  0  0  0  0  0  0  0  0  0
    8.8547   -0.1863   -4.2968 C   0  0  0  0  0  0  0  0  0  0  0  0
    6.8285   -0.3914   -3.0263 C   0  0  1  0  0  0  0  0  0  0  0  0
    5.6543   -0.4051   -4.0235 C   0  0  1  0  0  0  0  0  0  0  0  0
    4.4439   -0.5755   -3.0957 C   0  0  1  0  0  0  0  0  0  0  0  0
    5.0198   -1.3652   -1.9131 C   0  0  2  0  0  0  0  0  0  0  0  0
    6.4558   -1.1638   -1.9288 O   0  0  0  0  0  0  0  0  0  0  0  0
    4.6980   -2.8429   -2.0658 C   0  0  0  0  0  0  0  0  0  0  0  0
    5.2365   -3.5607   -0.9653 O   0  0  0  0  0  0  0  0  0  0  0  0
    4.8704   -5.2425   -1.1390 P   0  0  3  0  0  0  0  0  0  0  0  0
    3.3572   -4.9144   -1.1263 O   0  0  0  0  0  0  0  0  0  0  0  0
    5.7356   -5.2762   -2.6367 O   0  5  0  0  0  0  0  0  0  0  0  0
    4.5042   -6.9244   -1.3127 O   0  0  0  0  0  0  0  0  0  0  0  0
    2.8366   -7.1110   -1.7337 P   0  0  3  0  0  0  0  0  0  0  0  0
    3.1778   -8.4053   -2.5119 O   0  0  0  0  0  0  0  0  0  0  0  0
    2.4224   -7.1941   -0.0560 O   0  0  0  0  0  0  0  0  0  0  0  0
    1.1689   -7.2976   -2.1546 O   0  0  0  0  0  0  0  0  0  0  0  0
    1.0675   -7.9813   -3.3950 C   0  0  0  0  0  0  0  0  0  0  0  0
   -0.3976   -8.1435   -3.7658 C   0  0  2  0  0  0  0  0  0  0  0  0
   -1.0871   -6.7795   -3.8992 C   0  0  2  0  0  0  0  0  0  0  0  0
   -1.7958   -6.6135   -2.5483 C   0  0  2  0  0  0  0  0  0  0  0  0
   -2.0858   -8.0737   -2.1521 C   0  0  1  0  0  0  0  0  0  0  0  0
   -1.0907   -8.8674   -2.7177 O   0  0  0  0  0  0  0  0  0  0  0  0
   -2.0649   -8.2100   -0.6886 N   0  0  0  0  0  0  0  0  0  0  0  0
   -5.9531   -9.4316   -1.2865 C   0  0  0  0  0  0  0  0  0  0  0  0
   -4.6461   -9.0244   -1.0299 N   0  0  0  0  0  0  0  0  0  0  0  0
   -4.4037   -7.9836   -0.1366 C   0  0  0  0  0  0  0  0  0  0  0  0
   -5.4579   -7.3468    0.5022 C   0  0  0  0  0  0  0  0  0  0  0  0
   -5.1725   -6.3111    1.3800 N   0  0  0  0  0  0  0  0  0  0  0  0
   -3.8552   -5.9531    1.5929 C   0  0  0  0  0  0  0  0  0  0  0  0
   -2.8734   -6.5850    0.9718 N   0  0  0  0  0  0  0  0  0  0  0  0
   -3.1115   -7.5733    0.1239 C   0  0  0  0  0  0  0  0  0  0  0  0
   -6.8466   -7.7604    0.2545 N   0  0  0  0  0  0  0  0  0  0  0  0
   -2.9584   -5.8256   -2.6182 O   0  0  0  0  0  0  0  0  0  0  0  0
   -2.0878   -6.7839   -4.9039 O   0  0  0  0  0  0  0  0  0  0  0  0
    4.0180    0.7220   -2.7136 O   0  0  0  0  0  0  0  0  0  0  0  0
    5.5957    0.7565   -4.8138 O   0  0  0  0  0  0  0  0  0  0  0  0
    9.9688   -4.2463   -3.4970 C   0  0  0  0  0  0  0  0  0  0  0  0
   11.1862   -4.5161   -3.2515 O   0  0  0  0  0  0  0  0  0  0  0  0
    8.9488   -5.3006   -3.4028 N   0  0  0  0  0  0  0  0  0  0  0  0
   10.5493   -0.1745   -5.5730 H   0  0  0  0  0  0  0  0  0  0  0  0
   11.3648   -2.3789   -4.7872 H   0  0  0  0  0  0  0  0  0  0  0  0
    7.5348   -2.9818   -3.2661 H   0  0  0  0  0  0  0  0  0  0  0  0
    8.6631    0.8252   -4.3691 H   0  0  0  0  0  0  0  0  0  0  0  0
    7.0531    0.6098   -2.7230 H   0  0  0  0  0  0  0  0  0  0  0  0
    5.7272   -1.1779   -4.7599 H   0  0  0  0  0  0  0  0  0  0  0  0
    3.5993   -1.0755   -3.5218 H   0  0  0  0  0  0  0  0  0  0  0  0
    4.5971   -1.0312   -0.9886 H   0  0  0  0  0  0  0  0  0  0  0  0
    5.1271   -3.2092   -2.9749 H   0  0  0  0  0  0  0  0  0  0  0  0
    3.6367   -2.9758   -2.0933 H   0  0  0  0  0  0  0  0  0  0  0  0
    3.2265   -7.1110    0.4800 H   0  0  0  0  0  0  0  0  0  0  0  0
    1.5225   -8.9459   -3.3088 H   0  0  0  0  0  0  0  0  0  0  0  0
    1.5675   -7.4178   -4.1548 H   0  0  0  0  0  0  0  0  0  0  0  0
   -0.4363   -8.6691   -4.6970 H   0  0  0  0  0  0  0  0  0  0  0  0
   -0.3849   -6.0128   -4.1523 H   0  0  0  0  0  0  0  0  0  0  0  0
   -1.2052   -6.0844   -1.8299 H   0  0  0  0  0  0  0  0  0  0  0  0
   -3.0513   -8.3741   -2.5021 H   0  0  0  0  0  0  0  0  0  0  0  0
   -6.9245   -9.7356   -1.4565 H   0  0  0  0  0  0  0  0  0  0  0  0
   -3.6349   -5.1836    2.2442 H   0  0  0  0  0  0  0  0  0  0  0  0
   -7.0368   -8.4968   -0.3707 H   0  0  0  0  0  0  0  0  0  0  0  0
   -7.5864   -7.3010    0.7136 H   0  0  0  0  0  0  0  0  0  0  0  0
   -3.5778   -6.2188   -3.2527 H   0  0  0  0  0  0  0  0  0  0  0  0
   -2.7433   -7.4705   -4.7043 H   0  0  0  0  0  0  0  0  0  0  0  0
    4.7628    1.2045   -2.3219 H   0  0  0  0  0  0  0  0  0  0  0  0
    5.5268    1.5352   -4.2395 H   0  0  0  0  0  0  0  0  0  0  0  0
    8.0057   -5.0916   -3.5930 H   0  0  0  0  0  0  0  0  0  0  0  0
    9.2088   -6.2158   -3.1496 H   0  0  0  0  0  0  0  0  0  0  0  0
  1  2  2  0  0  0  0
  1  6  1  0  0  0  0
  1 45  1  0  0  0  0
  2  3  1  0  0  0  0
  2 46  1  0  0  0  0
  3  4  2  0  0  0  0
  3 42  1  0  0  0  0
  4  5  1  0  0  0  0
  4 47  1  0  0  0  0
  5  6  2  0  0  0  0
  5  7  1  0  0  0  0
  6 48  1  0  0  0  0
  7  8  1  0  0  0  0
  7 11  1  0  0  0  0
  7 49  1  1  0  0  0
  8  9  1  0  0  0  0
  8 41  1  0  0  0  0
  8 50  1  6  0  0  0
  9 10  1  0  0  0  0
  9 40  1  0  0  0  0
  9 51  1  6  0  0  0
 10 11  1  0  0  0  0
 10 12  1  0  0  0  0
 10 52  1  1  0  0  0
 12 13  1  0  0  0  0
 12 53  1  0  0  0  0
 12 54  1  0  0  0  0
 13 14  1  0  0  0  0
 14 15  2  0  0  0  0
 14 16  1  0  0  0  0
 14 17  1  0  0  0  0
 17 18  1  0  0  0  0
 18 19  2  0  0  0  0
 18 20  1  0  0  0  0
 18 21  1  0  0  0  0
 20 55  1  0  0  0  0
 21 22  1  0  0  0  0
 22 23  1  0  0  0  0
 22 56  1  0  0  0  0
 22 57  1  0  0  0  0
 23 24  1  0  0  0  0
 23 27  1  0  0  0  0
 23 58  1  6  0  0  0
 24 25  1  0  0  0  0
 24 39  1  0  0  0  0
 24 59  1  6  0  0  0
 25 26  1  0  0  0  0
 25 38  1  0  0  0  0
 25 60  1  1  0  0  0
 26 27  1  0  0  0  0
 26 28  1  0  0  0  0
 26 61  1  6  0  0  0
 28 29  1  0  0  0  0
 28 36  1  0  0  0  0
 29 30  2  0  0  0  0
 29 62  1  0  0  0  0
 30 31  1  0  0  0  0
 31 32  2  0  0  0  0
 31 36  1  0  0  0  0
 32 33  1  0  0  0  0
 32 37  1  0  0  0  0
 33 34  2  0  0  0  0
 34 35  1  0  0  0  0
 34 63  1  0  0  0  0
 35 36  2  0  0  0  0
 37 64  1  0  0  0  0
 37 65  1  0  0  0  0
 38 66  1  0  0  0  0
 39 67  1  0  0  0  0
 40 68  1  0  0  0  0
 41 69  1  0  0  0  0
 42 43  2  0  0  0  0
 42 44  1  0  0  0  0
 44 70  1  0  0  0  0
 44 71  1  0  0  0  0
M  CHG  2   5   1  16  -1
M  END
