
 OpenBabel10072619543D

 39 41  0  0  0  0  0  0  0  0999 V2000
   -2.7221    1.8258    1.9478 C   0  0  0  0  0  0  0  0  0  0  0  0
   -1.4069    1.2451    1.5638 C   0  0  0  0  0  0  0  0  0  0  0  0
   -0.3663    1.9540    1.1868 N   0  0  0  0  0  0  0  0  0  0  0  0
    0.6985    1.1140    0.9085 C   0  0  0  0  0  0  0  0  0  0  0  0
    0.4489   -0.2479    1.0744 C   0  0  0  0  0  0  0  0  0  0  0  0
   -1.1801   -0.4554    1.5955 S   0  0  0  0  0  0  0  0  0  0  0  0
    1.4338   -1.2245    0.8312 C   0  0  0  0  0  0  0  0  0  0  0  0
    2.7045   -0.8083    0.4164 C   0  0  0  0  0  0  0  0  0  0  0  0
    2.9640    0.5536    0.2371 C   0  0  0  0  0  0  0  0  0  0  0  0
    1.9769    1.5172    0.4811 C   0  0  0  0  0  0  0  0  0  0  0  0
    3.7605   -1.7015    0.1424 N   0  0  0  0  0  0  0  0  0  0  0  0
    3.8026   -3.0558    0.3974 C   0  0  0  0  0  0  0  0  0  0  0  0
    2.9649   -3.7146    0.9971 O   0  0  0  0  0  0  0  0  0  0  0  0
    4.9696   -3.6044   -0.1022 N   0  0  0  0  0  0  0  0  0  0  0  0
    5.2345   -5.0334    0.0187 C   0  0  0  0  0  0  0  0  0  0  0  0
    6.7407   -5.2942   -0.0960 C   0  0  0  0  0  0  0  0  0  0  0  0
    7.0626   -6.7843   -0.0298 C   0  0  0  0  0  0  0  0  0  0  0  0
    6.2865   -7.5715   -1.0808 C   0  0  0  0  0  0  0  0  0  0  0  0
    4.7853   -7.3198   -0.9761 C   0  0  0  0  0  0  0  0  0  0  0  0
    4.4566   -5.8301   -1.0386 C   0  0  0  0  0  0  0  0  0  0  0  0
   -2.6760    2.9195    1.9317 H   0  0  0  0  0  0  0  0  0  0  0  0
   -3.0055    1.5166    2.9589 H   0  0  0  0  0  0  0  0  0  0  0  0
   -3.5040    1.5106    1.2497 H   0  0  0  0  0  0  0  0  0  0  0  0
    1.1848   -2.2710    0.9675 H   0  0  0  0  0  0  0  0  0  0  0  0
    3.9433    0.8962   -0.0884 H   0  0  0  0  0  0  0  0  0  0  0  0
    2.1856    2.5738    0.3468 H   0  0  0  0  0  0  0  0  0  0  0  0
    4.6418   -1.2925   -0.1281 H   0  0  0  0  0  0  0  0  0  0  0  0
    5.3392   -3.1513   -0.9244 H   0  0  0  0  0  0  0  0  0  0  0  0
    4.8984   -5.3528    1.0141 H   0  0  0  0  0  0  0  0  0  0  0  0
    7.2728   -4.7686    0.7065 H   0  0  0  0  0  0  0  0  0  0  0  0
    7.1205   -4.8826   -1.0405 H   0  0  0  0  0  0  0  0  0  0  0  0
    6.8182   -7.1668    0.9688 H   0  0  0  0  0  0  0  0  0  0  0  0
    8.1380   -6.9361   -0.1753 H   0  0  0  0  0  0  0  0  0  0  0  0
    6.4903   -8.6419   -0.9651 H   0  0  0  0  0  0  0  0  0  0  0  0
    6.6352   -7.2856   -2.0808 H   0  0  0  0  0  0  0  0  0  0  0  0
    4.4103   -7.7355   -0.0328 H   0  0  0  0  0  0  0  0  0  0  0  0
    4.2666   -7.8458   -1.7855 H   0  0  0  0  0  0  0  0  0  0  0  0
    3.3773   -5.6917   -0.9029 H   0  0  0  0  0  0  0  0  0  0  0  0
    4.6927   -5.4469   -2.0401 H   0  0  0  0  0  0  0  0  0  0  0  0
  1  2  1  0  0  0  0
  1 21  1  0  0  0  0
  1 22  1  0  0  0  0
  1 23  1  0  0  0  0
  2  3  2  0  0  0  0
  2  6  1  0  0  0  0
  3  4  1  0  0  0  0
  4  5  2  0  0  0  0
  4 10  1  0  0  0  0
  5  6  1  0  0  0  0
  5  7  1  0  0  0  0
  7  8  2  0  0  0  0
  7 24  1  0  0  0  0
  8  9  1  0  0  0  0
  8 11  1  0  0  0  0
  9 10  2  0  0  0  0
  9 25  1  0  0  0  0
 10 26  1  0  0  0  0
 11 12  1  0  0  0  0
 11 27  1  0  0  0  0
 12 13  2  0  0  0  0
 12 14  1  0  0  0  0
 14 15  1  0  0  0  0
 14 28  1  0  0  0  0
 15 16  1  0  0  0  0
 15 20  1  0  0  0  0
 15 29  1  0  0  0  0
 16 17  1  0  0  0  0
 16 30  1  0  0  0  0
 16 31  1  0  0  0  0
 17 18  1  0  0  0  0
 17 32  1  0  0  0  0
 17 33  1  0  0  0  0
 18 19  1  0  0  0  0
 18 34  1  0  0  0  0
 18 35  1  0  0  0  0
 19 20  1  0  0  0  0
 19 36  1  0  0  0  0
 19 37  1  0  0  0  0
 20 38  1  0  0  0  0
 20 39  1  0  0  0  0
M  END
