
 OpenBabel10072619533D

 37 38  0  0  0  0  0  0  0  0999 V2000
   -1.5204   -2.1973    0.7362 C   0  0  0  0  0  0  0  0  0  0  0  0
   -0.6494   -1.0442    0.3347 C   0  0  0  0  0  0  0  0  0  0  0  0
   -1.1171    0.2721    0.4165 C   0  0  0  0  0  0  0  0  0  0  0  0
   -0.3053    1.3634    0.0664 C   0  0  0  0  0  0  0  0  0  0  0  0
    0.9715    1.1268   -0.4716 C   0  0  0  0  0  0  0  0  0  0  0  0
    1.4389   -0.1979   -0.5467 C   0  0  0  0  0  0  0  0  0  0  0  0
    0.6420   -1.2707   -0.1450 C   0  0  0  0  0  0  0  0  0  0  0  0
    1.8617    2.1860   -1.0583 C   0  0  0  0  0  0  0  0  0  0  0  0
   -0.9007    2.6407    0.2029 N   0  0  0  0  0  0  0  0  0  0  0  0
   -0.3831    3.7711    0.8393 C   0  0  0  0  0  0  0  0  0  0  0  0
    0.9691    3.8104    1.8351 S   0  0  0  0  0  0  0  0  0  0  0  0
   -1.2531    4.8506    0.6624 N   0  0  0  0  0  0  0  0  0  0  0  0
   -0.8964    6.1934    0.6290 C   0  0  0  0  0  0  0  0  0  0  0  0
    0.2024    6.7697    0.0226 C   0  0  0  0  0  0  0  0  0  0  0  0
    0.0749    8.1127    0.2436 N   0  0  0  0  0  0  0  0  0  0  0  0
   -1.0488    8.4607    0.8856 N   0  0  0  0  0  0  0  0  0  0  0  0
   -1.6564    7.2930    1.1247 C   0  0  0  0  0  0  0  0  0  0  0  0
   -2.9403    7.2664    1.8716 C   0  0  0  0  0  0  0  0  0  0  0  0
    1.3262    6.2419   -0.7868 C   0  0  0  0  0  0  0  0  0  0  0  0
   -2.4489   -1.8582    1.2090 H   0  0  0  0  0  0  0  0  0  0  0  0
   -0.9967   -2.8322    1.4581 H   0  0  0  0  0  0  0  0  0  0  0  0
   -1.7890   -2.7904   -0.1435 H   0  0  0  0  0  0  0  0  0  0  0  0
   -2.1209    0.4480    0.7962 H   0  0  0  0  0  0  0  0  0  0  0  0
    2.4295   -0.3979   -0.9533 H   0  0  0  0  0  0  0  0  0  0  0  0
    1.0318   -2.2816   -0.2295 H   0  0  0  0  0  0  0  0  0  0  0  0
    1.3310    3.1226   -1.2355 H   0  0  0  0  0  0  0  0  0  0  0  0
    2.2377    1.8632   -2.0364 H   0  0  0  0  0  0  0  0  0  0  0  0
    2.7215    2.3658   -0.4055 H   0  0  0  0  0  0  0  0  0  0  0  0
   -1.9085    2.6418    0.1348 H   0  0  0  0  0  0  0  0  0  0  0  0
   -2.2044    4.6765    0.9569 H   0  0  0  0  0  0  0  0  0  0  0  0
    0.7053    8.8512   -0.0495 H   0  0  0  0  0  0  0  0  0  0  0  0
   -3.2626    8.2665    2.1824 H   0  0  0  0  0  0  0  0  0  0  0  0
   -2.8364    6.6604    2.7767 H   0  0  0  0  0  0  0  0  0  0  0  0
   -3.7383    6.8334    1.2609 H   0  0  0  0  0  0  0  0  0  0  0  0
    0.9922    5.4243   -1.4315 H   0  0  0  0  0  0  0  0  0  0  0  0
    2.1437    5.8819   -0.1567 H   0  0  0  0  0  0  0  0  0  0  0  0
    1.7429    7.0154   -1.4415 H   0  0  0  0  0  0  0  0  0  0  0  0
  1  2  1  0  0  0  0
  1 20  1  0  0  0  0
  1 21  1  0  0  0  0
  1 22  1  0  0  0  0
  2  3  2  0  0  0  0
  2  7  1  0  0  0  0
  3  4  1  0  0  0  0
  3 23  1  0  0  0  0
  4  5  2  0  0  0  0
  4  9  1  0  0  0  0
  5  6  1  0  0  0  0
  5  8  1  0  0  0  0
  6  7  2  0  0  0  0
  6 24  1  0  0  0  0
  7 25  1  0  0  0  0
  8 26  1  0  0  0  0
  8 27  1  0  0  0  0
  8 28  1  0  0  0  0
  9 10  1  0  0  0  0
  9 29  1  0  0  0  0
 10 11  2  0  0  0  0
 10 12  1  0  0  0  0
 12 13  1  0  0  0  0
 12 30  1  0  0  0  0
 13 14  2  0  0  0  0
 13 17  1  0  0  0  0
 14 15  1  0  0  0  0
 14 19  1  0  0  0  0
 15 16  1  0  0  0  0
 15 31  1  0  0  0  0
 16 17  2  0  0  0  0
 17 18  1  0  0  0  0
 18 32  1  0  0  0  0
 18 33  1  0  0  0  0
 18 34  1  0  0  0  0
 19 35  1  0  0  0  0
 19 36  1  0  0  0  0
 19 37  1  0  0  0  0
M  END
