
 OpenBabel10072616313D

 25 25  0  0  0  0  0  0  0  0999 V2000
    3.4329    0.9603   -2.4580 C   0  0  0  0  0  0  0  0  0  0  0  0
    3.9702    0.3581   -1.3877 C   0  0  0  0  0  0  0  0  0  0  0  0
    5.1300    0.8887   -0.6101 C   0  0  0  0  0  0  0  0  0  0  0  0
    4.6072    1.5572    0.5588 N   0  0  0  0  0  0  0  0  0  0  0  0
    5.3660    2.1764    1.5129 C   0  0  0  0  0  0  0  0  0  0  0  0
    4.8974    3.1519    2.0892 O   0  0  0  0  0  0  0  0  0  0  0  0
    6.5941    1.6179    1.7318 N   0  0  0  0  0  0  0  0  0  0  0  0
    7.6522    2.1349    2.5199 C   0  0  0  0  0  0  0  0  0  0  0  0
    8.7418    1.2938    2.8348 C   0  0  0  0  0  0  0  0  0  0  0  0
    9.8241    1.7923    3.5766 C   0  0  0  0  0  0  0  0  0  0  0  0
    9.8293    3.1224    4.0021 C   0  0  0  0  0  0  0  0  0  0  0  0
    8.7579    3.9558    3.6907 C   0  0  0  0  0  0  0  0  0  0  0  0
    7.6775    3.4661    2.9523 C   0  0  0  0  0  0  0  0  0  0  0  0
   11.1907    0.8184    3.9955 Cl  0  0  0  0  0  0  0  0  0  0  0  0
    8.7229   -0.3586    2.2849 Cl  0  0  0  0  0  0  0  0  0  0  0  0
    2.5927    0.5129   -2.9813 H   0  0  0  0  0  0  0  0  0  0  0  0
    3.8057    1.9110   -2.8284 H   0  0  0  0  0  0  0  0  0  0  0  0
    3.5539   -0.5887   -1.0510 H   0  0  0  0  0  0  0  0  0  0  0  0
    5.7160    1.6141   -1.1851 H   0  0  0  0  0  0  0  0  0  0  0  0
    5.7935    0.0699   -0.3170 H   0  0  0  0  0  0  0  0  0  0  0  0
    3.7401    2.0635    0.4245 H   0  0  0  0  0  0  0  0  0  0  0  0
    6.6784    0.6406    1.4850 H   0  0  0  0  0  0  0  0  0  0  0  0
   10.6688    3.5166    4.5706 H   0  0  0  0  0  0  0  0  0  0  0  0
    8.7643    4.9938    4.0163 H   0  0  0  0  0  0  0  0  0  0  0  0
    6.8739    4.1579    2.7103 H   0  0  0  0  0  0  0  0  0  0  0  0
  1  2  2  0  0  0  0
  1 16  1  0  0  0  0
  1 17  1  0  0  0  0
  2  3  1  0  0  0  0
  2 18  1  0  0  0  0
  3  4  1  0  0  0  0
  3 19  1  0  0  0  0
  3 20  1  0  0  0  0
  4  5  1  0  0  0  0
  4 21  1  0  0  0  0
  5  6  2  0  0  0  0
  5  7  1  0  0  0  0
  7  8  1  0  0  0  0
  7 22  1  0  0  0  0
  8  9  2  0  0  0  0
  8 13  1  0  0  0  0
  9 10  1  0  0  0  0
  9 15  1  0  0  0  0
 10 11  2  0  0  0  0
 10 14  1  0  0  0  0
 11 12  1  0  0  0  0
 11 23  1  0  0  0  0
 12 13  2  0  0  0  0
 12 24  1  0  0  0  0
 13 25  1  0  0  0  0
M  END
