
 OpenBabel10072620213D

 34 35  0  0  1  0  0  0  0  0999 V2000
   -1.3481   -2.7328   -0.4035 C   0  0  0  0  0  0  0  0  0  0  0  0
   -0.7369   -1.3653   -0.5504 C   0  0  0  0  0  0  0  0  0  0  0  0
   -1.5978   -0.2689   -0.7416 C   0  0  0  0  0  0  0  0  0  0  0  0
   -1.0912    1.0198   -0.8902 C   0  0  0  0  0  0  0  0  0  0  0  0
    0.2814    1.2286   -0.8451 C   0  0  0  0  0  0  0  0  0  0  0  0
    1.1494    0.1503   -0.6538 C   0  0  0  0  0  0  0  0  0  0  0  0
    0.6599   -1.1535   -0.5137 C   0  0  0  0  0  0  0  0  0  0  0  0
    1.5136   -2.2641   -0.3256 N   0  0  0  0  0  0  0  0  0  0  0  0
    2.8902   -2.3017   -0.3767 C   0  0  0  0  0  0  0  0  0  0  0  0
    3.6464   -1.3842   -0.6632 O   0  0  0  0  0  0  0  0  0  0  0  0
    3.3482   -3.5683   -0.0848 N   0  0  0  0  0  0  0  0  0  0  0  0
    4.7678   -3.8693   -0.0605 C   0  0  3  0  0  0  0  0  0  0  0  0
    5.4335   -3.3929    1.2301 C   0  0  0  0  0  0  0  0  0  0  0  0
    4.9222   -5.3551   -0.2847 C   0  0  0  0  0  0  0  0  0  0  0  0
    5.5139   -5.9809   -1.3672 C   0  0  0  0  0  0  0  0  0  0  0  0
    5.4716   -7.4012   -1.2713 C   0  0  0  0  0  0  0  0  0  0  0  0
    4.8450   -7.8208   -0.1205 C   0  0  0  0  0  0  0  0  0  0  0  0
    4.3103   -6.5085    0.8344 S   0  0  0  0  0  0  0  0  0  0  0  0
   -2.4423   -2.6914   -0.4298 H   0  0  0  0  0  0  0  0  0  0  0  0
   -1.0616   -3.1775    0.5552 H   0  0  0  0  0  0  0  0  0  0  0  0
   -1.0228   -3.3817   -1.2229 H   0  0  0  0  0  0  0  0  0  0  0  0
   -2.6756   -0.4134   -0.7791 H   0  0  0  0  0  0  0  0  0  0  0  0
   -1.7660    1.8583   -1.0407 H   0  0  0  0  0  0  0  0  0  0  0  0
    0.6851    2.2314   -0.9586 H   0  0  0  0  0  0  0  0  0  0  0  0
    2.2129    0.3650   -0.6175 H   0  0  0  0  0  0  0  0  0  0  0  0
    1.0734   -3.1673   -0.2660 H   0  0  0  0  0  0  0  0  0  0  0  0
    2.7632   -4.1498    0.4944 H   0  0  0  0  0  0  0  0  0  0  0  0
    5.2392   -3.3377   -0.8975 H   0  0  0  0  0  0  0  0  0  0  0  0
    4.9463   -3.8093    2.1188 H   0  0  0  0  0  0  0  0  0  0  0  0
    5.3794   -2.3023    1.3175 H   0  0  0  0  0  0  0  0  0  0  0  0
    6.4904   -3.6803    1.2584 H   0  0  0  0  0  0  0  0  0  0  0  0
    5.9551   -5.4391   -2.1962 H   0  0  0  0  0  0  0  0  0  0  0  0
    5.8781   -8.0800   -2.0111 H   0  0  0  0  0  0  0  0  0  0  0  0
    4.6734   -8.8377    0.2052 H   0  0  0  0  0  0  0  0  0  0  0  0
  1  2  1  0  0  0  0
  1 19  1  0  0  0  0
  1 20  1  0  0  0  0
  1 21  1  0  0  0  0
  2  3  2  0  0  0  0
  2  7  1  0  0  0  0
  3  4  1  0  0  0  0
  3 22  1  0  0  0  0
  4  5  2  0  0  0  0
  4 23  1  0  0  0  0
  5  6  1  0  0  0  0
  5 24  1  0  0  0  0
  6  7  2  0  0  0  0
  6 25  1  0  0  0  0
  7  8  1  0  0  0  0
  8  9  1  0  0  0  0
  8 26  1  0  0  0  0
  9 10  2  0  0  0  0
  9 11  1  0  0  0  0
 11 12  1  0  0  0  0
 11 27  1  0  0  0  0
 12 13  1  0  0  0  0
 12 14  1  0  0  0  0
 12 28  1  0  0  0  0
 13 29  1  0  0  0  0
 13 30  1  0  0  0  0
 13 31  1  0  0  0  0
 14 15  2  0  0  0  0
 14 18  1  0  0  0  0
 15 16  1  0  0  0  0
 15 32  1  0  0  0  0
 16 17  2  0  0  0  0
 16 33  1  0  0  0  0
 17 18  1  0  0  0  0
 17 34  1  0  0  0  0
M  END
