
 OpenBabel10072616323D

 44 45  0  0  0  0  0  0  0  0999 V2000
    1.4541    0.4531    0.2814 C   0  0  0  0  0  0  0  0  0  0  0  0
    2.8456   -0.1161    0.4910 C   0  0  0  0  0  0  0  0  0  0  0  0
    3.3606   -0.4953   -0.7860 O   0  0  0  0  0  0  0  0  0  0  0  0
    4.5910   -1.0884   -0.8113 C   0  0  0  0  0  0  0  0  0  0  0  0
    5.4487   -1.2423    0.2730 C   0  0  0  0  0  0  0  0  0  0  0  0
    6.6920   -1.8747    0.1017 C   0  0  0  0  0  0  0  0  0  0  0  0
    7.0935   -2.3541   -1.1514 C   0  0  0  0  0  0  0  0  0  0  0  0
    6.2214   -2.2003   -2.2317 C   0  0  0  0  0  0  0  0  0  0  0  0
    4.9863   -1.5660   -2.0615 C   0  0  0  0  0  0  0  0  0  0  0  0
    8.2949   -2.9985   -1.2390 O   0  0  0  0  0  0  0  0  0  0  0  0
    8.9212   -3.0381   -2.5206 C   0  0  0  0  0  0  0  0  0  0  0  0
   10.3497   -3.5160   -2.3289 C   0  0  0  0  0  0  0  0  0  0  0  0
    7.7541   -2.0289    1.5147 S   0  0  0  0  0  0  0  0  0  0  0  0
    9.0405   -1.4605    1.1796 O   0  0  0  0  0  0  0  0  0  0  0  0
    7.0260   -1.5790    2.6839 O   0  0  0  0  0  0  0  0  0  0  0  0
    7.9568   -3.6747    1.6719 N   0  0  0  0  0  0  0  0  0  0  0  0
    6.9015   -4.4669    2.2781 C   0  0  0  0  0  0  0  0  0  0  0  0
    7.1542   -5.9431    2.0922 C   0  0  0  0  0  0  0  0  0  0  0  0
    7.3356   -6.7797    3.2019 C   0  0  0  0  0  0  0  0  0  0  0  0
    7.5654   -8.1455    3.0305 C   0  0  0  0  0  0  0  0  0  0  0  0
    7.6195   -8.6884    1.7476 C   0  0  0  0  0  0  0  0  0  0  0  0
    7.4408   -7.8675    0.6357 C   0  0  0  0  0  0  0  0  0  0  0  0
    7.2084   -6.5013    0.8053 C   0  0  0  0  0  0  0  0  0  0  0  0
    0.9971    0.7370    1.2337 H   0  0  0  0  0  0  0  0  0  0  0  0
    0.8105   -0.2793   -0.2167 H   0  0  0  0  0  0  0  0  0  0  0  0
    1.4945    1.3345   -0.3668 H   0  0  0  0  0  0  0  0  0  0  0  0
    2.7803   -0.9907    1.1485 H   0  0  0  0  0  0  0  0  0  0  0  0
    3.4819    0.6506    0.9475 H   0  0  0  0  0  0  0  0  0  0  0  0
    5.1752   -0.8725    1.2559 H   0  0  0  0  0  0  0  0  0  0  0  0
    6.4644   -2.5783   -3.2201 H   0  0  0  0  0  0  0  0  0  0  0  0
    4.3178   -1.4596   -2.9129 H   0  0  0  0  0  0  0  0  0  0  0  0
    8.9336   -2.0414   -2.9765 H   0  0  0  0  0  0  0  0  0  0  0  0
    8.3939   -3.7425   -3.1729 H   0  0  0  0  0  0  0  0  0  0  0  0
   10.8920   -2.8483   -1.6511 H   0  0  0  0  0  0  0  0  0  0  0  0
   10.8781   -3.5555   -3.2860 H   0  0  0  0  0  0  0  0  0  0  0  0
   10.3653   -4.5124   -1.8742 H   0  0  0  0  0  0  0  0  0  0  0  0
    8.9224   -3.9888    1.7304 H   0  0  0  0  0  0  0  0  0  0  0  0
    5.9253   -4.2241    1.8425 H   0  0  0  0  0  0  0  0  0  0  0  0
    6.8553   -4.2367    3.3486 H   0  0  0  0  0  0  0  0  0  0  0  0
    7.3019   -6.3727    4.2105 H   0  0  0  0  0  0  0  0  0  0  0  0
    7.7052   -8.7850    3.8982 H   0  0  0  0  0  0  0  0  0  0  0  0
    7.7995   -9.7522    1.6162 H   0  0  0  0  0  0  0  0  0  0  0  0
    7.4860   -8.2916   -0.3645 H   0  0  0  0  0  0  0  0  0  0  0  0
    7.0773   -5.8688   -0.0708 H   0  0  0  0  0  0  0  0  0  0  0  0
  1  2  1  0  0  0  0
  1 24  1  0  0  0  0
  1 25  1  0  0  0  0
  1 26  1  0  0  0  0
  2  3  1  0  0  0  0
  2 27  1  0  0  0  0
  2 28  1  0  0  0  0
  3  4  1  0  0  0  0
  4  5  2  0  0  0  0
  4  9  1  0  0  0  0
  5  6  1  0  0  0  0
  5 29  1  0  0  0  0
  6  7  2  0  0  0  0
  6 13  1  0  0  0  0
  7  8  1  0  0  0  0
  7 10  1  0  0  0  0
  8  9  2  0  0  0  0
  8 30  1  0  0  0  0
  9 31  1  0  0  0  0
 10 11  1  0  0  0  0
 11 12  1  0  0  0  0
 11 32  1  0  0  0  0
 11 33  1  0  0  0  0
 12 34  1  0  0  0  0
 12 35  1  0  0  0  0
 12 36  1  0  0  0  0
 13 14  2  0  0  0  0
 13 15  2  0  0  0  0
 13 16  1  0  0  0  0
 16 17  1  0  0  0  0
 16 37  1  0  0  0  0
 17 18  1  0  0  0  0
 17 38  1  0  0  0  0
 17 39  1  0  0  0  0
 18 19  2  0  0  0  0
 18 23  1  0  0  0  0
 19 20  1  0  0  0  0
 19 40  1  0  0  0  0
 20 21  2  0  0  0  0
 20 41  1  0  0  0  0
 21 22  1  0  0  0  0
 21 42  1  0  0  0  0
 22 23  2  0  0  0  0
 22 43  1  0  0  0  0
 23 44  1  0  0  0  0
M  END
