
 OpenBabel10072620013D

 80 84  0  0  1  0  0  0  0  0999 V2000
    6.3089    2.3482   -0.1892 C   0  0  0  0  0  0  0  0  0  0  0  0
    7.3782    1.6474    0.5965 C   0  0  0  0  0  0  0  0  0  0  0  0
    6.9675    0.7784    1.6191 C   0  0  0  0  0  0  0  0  0  0  0  0
    7.8870    0.0608    2.3961 C   0  0  0  0  0  0  0  0  0  0  0  0
    9.2569    0.3003    2.2098 C   0  0  0  0  0  0  0  0  0  0  0  0
    9.7059    1.1894    1.2181 C   0  0  0  0  0  0  0  0  0  0  0  0
    8.7549    1.8153    0.3864 C   0  0  0  0  0  0  0  0  0  0  0  0
    9.2592    2.3290   -0.8427 O   0  0  0  0  0  0  0  0  0  0  0  0
    8.9145    3.5438   -1.4514 C   0  0  0  0  0  0  0  0  0  0  0  0
    8.2659    4.4434   -0.9365 O   0  0  0  0  0  0  0  0  0  0  0  0
    9.4043    3.4687   -2.9021 C   0  0  0  0  0  0  0  0  0  0  0  0
    9.4663    4.7600   -3.6074 N   0  0  0  0  0  0  0  0  0  0  0  0
   10.4224    5.6851   -3.0150 C   0  0  0  0  0  0  0  0  0  0  0  0
   11.1827    1.4241    1.0245 C   0  0  0  0  0  0  0  0  0  0  0  0
    7.3946   -1.0130    3.3348 C   0  0  0  0  0  0  0  0  0  0  0  0
    7.2906   -2.2661    2.5808 N   0  3  0  0  0  0  0  0  0  0  0  0
    6.2443   -2.6164    1.8223 C   0  0  0  0  0  0  0  0  0  0  0  0
    6.6029   -3.6940    1.1037 N   0  0  0  0  0  0  0  0  0  0  0  0
    7.8488   -4.1301    1.5337 C   0  0  0  0  0  0  0  0  0  0  0  0
    8.2920   -3.2108    2.4399 C   0  0  0  0  0  0  0  0  0  0  0  0
    5.9577   -4.0512   -0.1787 C   0  0  0  0  0  0  0  0  0  0  0  0
    5.4300   -5.5139   -0.4185 C   0  0  2  0  0  0  0  0  0  0  0  0
    5.1189   -5.6474   -1.9269 C   0  0  0  0  0  0  0  0  0  0  0  0
    4.5423   -4.5846   -2.6595 C   0  0  0  0  0  0  0  0  0  0  0  0
    4.3274   -4.6366   -4.0316 C   0  0  0  0  0  0  0  0  0  0  0  0
    4.6649   -5.7880   -4.7110 C   0  0  0  0  0  0  0  0  0  0  0  0
    5.2062   -6.8770   -4.0397 C   0  0  0  0  0  0  0  0  0  0  0  0
    5.4271   -6.8108   -2.6564 C   0  0  0  0  0  0  0  0  0  0  0  0
    4.4756   -5.8473   -6.0346 F   0  0  0  0  0  0  0  0  0  0  0  0
    4.1779   -3.4564   -2.0384 F   0  0  0  0  0  0  0  0  0  0  0  0
    4.2302   -5.8343    0.5441 C   0  0  1  0  0  0  0  0  0  0  0  0
    2.9581   -5.0022    0.3544 C   0  0  0  0  0  0  0  0  0  0  0  0
    3.8367   -7.3038    0.5519 C   0  0  0  0  0  0  0  0  0  0  0  0
    3.3714   -7.9792   -0.4819 N   0  0  0  0  0  0  0  0  0  0  0  0
    3.0489   -9.2959   -0.1169 C   0  0  0  0  0  0  0  0  0  0  0  0
    3.2636   -9.5800    1.2191 C   0  0  0  0  0  0  0  0  0  0  0  0
    3.9239   -8.2104    2.0144 S   0  0  0  0  0  0  0  0  0  0  0  0
    2.5365  -10.2717   -1.0875 C   0  0  0  0  0  0  0  0  0  0  0  0
    2.7372  -11.6543   -0.9333 C   0  0  0  0  0  0  0  0  0  0  0  0
    2.2568  -12.5687   -1.8851 C   0  0  0  0  0  0  0  0  0  0  0  0
    1.5717  -12.1158   -3.0152 C   0  0  0  0  0  0  0  0  0  0  0  0
    1.3676  -10.7439   -3.1807 C   0  0  0  0  0  0  0  0  0  0  0  0
    1.8530   -9.8339   -2.2289 C   0  0  0  0  0  0  0  0  0  0  0  0
    1.1130  -13.0428   -4.0083 C   0  0  0  0  0  0  0  0  0  0  0  0
    0.7512  -13.7966   -4.8204 N   0  0  0  0  0  0  0  0  0  0  0  0
    6.5532   -6.3834   -0.1042 O   0  0  0  0  0  0  0  0  0  0  0  0
    5.3401    1.8602   -0.0376 H   0  0  0  0  0  0  0  0  0  0  0  0
    6.5027    2.3140   -1.2627 H   0  0  0  0  0  0  0  0  0  0  0  0
    6.2091    3.3844    0.1502 H   0  0  0  0  0  0  0  0  0  0  0  0
    5.9010    0.6295    1.7793 H   0  0  0  0  0  0  0  0  0  0  0  0
    9.9891   -0.2285    2.8175 H   0  0  0  0  0  0  0  0  0  0  0  0
    8.6957    2.8331   -3.4481 H   0  0  0  0  0  0  0  0  0  0  0  0
   10.3846    2.9796   -2.9294 H   0  0  0  0  0  0  0  0  0  0  0  0
    8.5432    5.1957   -3.6007 H   0  0  0  0  0  0  0  0  0  0  0  0
   11.4055    5.2207   -2.8917 H   0  0  0  0  0  0  0  0  0  0  0  0
   10.0728    6.0532   -2.0461 H   0  0  0  0  0  0  0  0  0  0  0  0
   10.5454    6.5513   -3.6742 H   0  0  0  0  0  0  0  0  0  0  0  0
   11.7661    1.0313    1.8672 H   0  0  0  0  0  0  0  0  0  0  0  0
   11.3922    2.4998    0.9644 H   0  0  0  0  0  0  0  0  0  0  0  0
   11.5313    0.9358    0.1087 H   0  0  0  0  0  0  0  0  0  0  0  0
    6.4082   -0.7595    3.7374 H   0  0  0  0  0  0  0  0  0  0  0  0
    8.0763   -1.1617    4.1760 H   0  0  0  0  0  0  0  0  0  0  0  0
    5.3186   -2.0592    1.7138 H   0  0  0  0  0  0  0  0  0  0  0  0
    8.3091   -4.9774    1.0592 H   0  0  0  0  0  0  0  0  0  0  0  0
    9.2228   -3.0528    2.9540 H   0  0  0  0  0  0  0  0  0  0  0  0
    6.7085   -3.7961   -0.9427 H   0  0  0  0  0  0  0  0  0  0  0  0
    5.1438   -3.3297   -0.2756 H   0  0  0  0  0  0  0  0  0  0  0  0
    3.8978   -3.7876   -4.5546 H   0  0  0  0  0  0  0  0  0  0  0  0
    5.4371   -7.7784   -4.6025 H   0  0  0  0  0  0  0  0  0  0  0  0
    5.8386   -7.6968   -2.1786 H   0  0  0  0  0  0  0  0  0  0  0  0
    4.5861   -5.6029    1.5589 H   0  0  0  0  0  0  0  0  0  0  0  0
    2.5387   -5.1023   -0.6497 H   0  0  0  0  0  0  0  0  0  0  0  0
    3.1296   -3.9450    0.5672 H   0  0  0  0  0  0  0  0  0  0  0  0
    2.1886   -5.3512    1.0506 H   0  0  0  0  0  0  0  0  0  0  0  0
    3.0906  -10.4848    1.7907 H   0  0  0  0  0  0  0  0  0  0  0  0
    3.2931  -12.0480   -0.0864 H   0  0  0  0  0  0  0  0  0  0  0  0
    2.4338  -13.6349   -1.7445 H   0  0  0  0  0  0  0  0  0  0  0  0
    0.8301  -10.3712   -4.0519 H   0  0  0  0  0  0  0  0  0  0  0  0
    1.6978   -8.7712   -2.3931 H   0  0  0  0  0  0  0  0  0  0  0  0
    6.2439   -7.3148   -0.1330 H   0  0  0  0  0  0  0  0  0  0  0  0
  1  2  1  0  0  0  0
  1 47  1  0  0  0  0
  1 48  1  0  0  0  0
  1 49  1  0  0  0  0
  2  3  2  0  0  0  0
  2  7  1  0  0  0  0
  3  4  1  0  0  0  0
  3 50  1  0  0  0  0
  4  5  2  0  0  0  0
  4 15  1  0  0  0  0
  5  6  1  0  0  0  0
  5 51  1  0  0  0  0
  6  7  2  0  0  0  0
  6 14  1  0  0  0  0
  7  8  1  0  0  0  0
  8  9  1  0  0  0  0
  9 10  2  0  0  0  0
  9 11  1  0  0  0  0
 11 12  1  0  0  0  0
 11 52  1  0  0  0  0
 11 53  1  0  0  0  0
 12 13  1  0  0  0  0
 12 54  1  0  0  0  0
 13 55  1  0  0  0  0
 13 56  1  0  0  0  0
 13 57  1  0  0  0  0
 14 58  1  0  0  0  0
 14 59  1  0  0  0  0
 14 60  1  0  0  0  0
 15 16  1  0  0  0  0
 15 61  1  0  0  0  0
 15 62  1  0  0  0  0
 16 17  2  0  0  0  0
 16 20  1  0  0  0  0
 17 18  1  0  0  0  0
 17 63  1  0  0  0  0
 18 19  1  0  0  0  0
 18 21  1  0  0  0  0
 19 20  2  0  0  0  0
 19 64  1  0  0  0  0
 20 65  1  0  0  0  0
 21 66  1  0  0  0  0
 21 67  1  0  0  0  0
 22 31  1  0  0  0  0
 22 46  1  1  0  0  0
 22 23  1  0  0  0  0
 22 21  1  0  0  0  0
 23 24  2  0  0  0  0
 23 28  1  0  0  0  0
 24 25  1  0  0  0  0
 24 30  1  0  0  0  0
 25 26  2  0  0  0  0
 25 68  1  0  0  0  0
 26 27  1  0  0  0  0
 26 29  1  0  0  0  0
 27 28  2  0  0  0  0
 27 69  1  0  0  0  0
 28 70  1  0  0  0  0
 31 32  1  0  0  0  0
 31 33  1  0  0  0  0
 31 71  1  1  0  0  0
 32 72  1  0  0  0  0
 32 73  1  0  0  0  0
 32 74  1  0  0  0  0
 33 34  2  0  0  0  0
 33 37  1  0  0  0  0
 34 35  1  0  0  0  0
 35 36  2  0  0  0  0
 35 38  1  0  0  0  0
 36 37  1  0  0  0  0
 36 75  1  0  0  0  0
 38 39  2  0  0  0  0
 38 43  1  0  0  0  0
 39 40  1  0  0  0  0
 39 76  1  0  0  0  0
 40 41  2  0  0  0  0
 40 77  1  0  0  0  0
 41 42  1  0  0  0  0
 41 44  1  0  0  0  0
 42 43  2  0  0  0  0
 42 78  1  0  0  0  0
 43 79  1  0  0  0  0
 44 45  3  0  0  0  0
 46 80  1  0  0  0  0
M  CHG  1  16   1
M  END
