
 OpenBabel10072619473D

 61 65  0  0  0  0  0  0  0  0999 V2000
    2.2903    0.1522   -0.1929 C   0  0  0  0  0  0  0  0  0  0  0  0
    0.7913    0.1066   -0.1657 C   0  0  0  0  0  0  0  0  0  0  0  0
    0.0336    0.6597   -1.2054 C   0  0  0  0  0  0  0  0  0  0  0  0
   -1.3624    0.6143   -1.1651 C   0  0  0  0  0  0  0  0  0  0  0  0
   -2.0161    0.0129   -0.0846 C   0  0  0  0  0  0  0  0  0  0  0  0
   -1.2613   -0.5557    0.9462 C   0  0  0  0  0  0  0  0  0  0  0  0
    0.1331   -0.5145    0.9029 C   0  0  0  0  0  0  0  0  0  0  0  0
   -3.4806   -0.0119   -0.0106 C   0  0  0  0  0  0  0  0  0  0  0  0
   -4.2019   -0.8548   -0.7677 C   0  0  0  0  0  0  0  0  0  0  0  0
   -5.6068   -0.9585   -0.6331 C   0  0  0  0  0  0  0  0  0  0  0  0
   -6.3165   -1.2961    0.4267 N   0  0  0  0  0  0  0  0  0  0  0  0
   -7.6215   -1.3343    0.0115 C   0  0  0  0  0  0  0  0  0  0  0  0
   -8.7765   -1.6671    0.7347 C   0  0  0  0  0  0  0  0  0  0  0  0
  -10.0130   -1.6525    0.0792 C   0  0  0  0  0  0  0  0  0  0  0  0
  -10.0988   -1.3072   -1.2702 C   0  0  0  0  0  0  0  0  0  0  0  0
   -8.9592   -0.9567   -2.0038 C   0  0  0  0  0  0  0  0  0  0  0  0
   -7.7308   -0.9827   -1.3304 C   0  0  0  0  0  0  0  0  0  0  0  0
   -6.4333   -0.7028   -1.7104 N   0  0  0  0  0  0  0  0  0  0  0  0
   -6.0446   -0.0961   -2.9770 C   0  0  0  0  0  0  0  0  0  0  0  0
   -5.3969   -1.0616   -3.9401 C   0  0  0  0  0  0  0  0  0  0  0  0
   -5.9381   -2.3290   -4.2029 C   0  0  0  0  0  0  0  0  0  0  0  0
   -5.3520   -3.1686   -5.1523 C   0  0  0  0  0  0  0  0  0  0  0  0
   -4.2253   -2.7488   -5.8566 C   0  0  0  0  0  0  0  0  0  0  0  0
   -3.6783   -1.4919   -5.6093 C   0  0  0  0  0  0  0  0  0  0  0  0
   -4.2623   -0.6524   -4.6597 C   0  0  0  0  0  0  0  0  0  0  0  0
   -4.0152    0.8536    0.9498 O   0  0  0  0  0  0  0  0  0  0  0  0
   -4.4950    2.0108    0.4061 C   0  0  0  0  0  0  0  0  0  0  0  0
   -4.6056    2.2867   -0.7824 O   0  0  0  0  0  0  0  0  0  0  0  0
   -4.8462    2.9667    1.4917 C   0  0  0  0  0  0  0  0  0  0  0  0
   -5.5393    4.1346    1.1505 C   0  0  0  0  0  0  0  0  0  0  0  0
   -5.8438    5.0879    2.1261 C   0  0  0  0  0  0  0  0  0  0  0  0
   -5.4616    4.8840    3.4578 C   0  0  0  0  0  0  0  0  0  0  0  0
   -4.7585    3.7216    3.7962 C   0  0  0  0  0  0  0  0  0  0  0  0
   -4.4567    2.7652    2.8224 C   0  0  0  0  0  0  0  0  0  0  0  0
   -5.7344    5.9339    4.4947 C   0  0  0  0  0  0  0  0  0  0  0  0
    2.6567    0.8157   -0.9828 H   0  0  0  0  0  0  0  0  0  0  0  0
    2.6966   -0.8487   -0.3688 H   0  0  0  0  0  0  0  0  0  0  0  0
    2.6726    0.5327    0.7601 H   0  0  0  0  0  0  0  0  0  0  0  0
    0.5243    1.1390   -2.0496 H   0  0  0  0  0  0  0  0  0  0  0  0
   -1.9366    1.0653   -1.9718 H   0  0  0  0  0  0  0  0  0  0  0  0
   -1.7588   -1.0362    1.7860 H   0  0  0  0  0  0  0  0  0  0  0  0
    0.7026   -0.9649    1.7129 H   0  0  0  0  0  0  0  0  0  0  0  0
   -3.7100   -1.5051   -1.4861 H   0  0  0  0  0  0  0  0  0  0  0  0
   -8.6996   -1.9358    1.7824 H   0  0  0  0  0  0  0  0  0  0  0  0
  -10.9131   -1.9157    0.6291 H   0  0  0  0  0  0  0  0  0  0  0  0
  -11.0698   -1.3108   -1.7612 H   0  0  0  0  0  0  0  0  0  0  0  0
   -9.0367   -0.6904   -3.0527 H   0  0  0  0  0  0  0  0  0  0  0  0
   -5.3703    0.7341   -2.7414 H   0  0  0  0  0  0  0  0  0  0  0  0
   -6.9310    0.3420   -3.4480 H   0  0  0  0  0  0  0  0  0  0  0  0
   -6.8216   -2.6793   -3.6730 H   0  0  0  0  0  0  0  0  0  0  0  0
   -5.7792   -4.1500   -5.3453 H   0  0  0  0  0  0  0  0  0  0  0  0
   -3.7750   -3.4010   -6.6003 H   0  0  0  0  0  0  0  0  0  0  0  0
   -2.8006   -1.1627   -6.1604 H   0  0  0  0  0  0  0  0  0  0  0  0
   -3.8259    0.3302   -4.4882 H   0  0  0  0  0  0  0  0  0  0  0  0
   -5.8346    4.3140    0.1186 H   0  0  0  0  0  0  0  0  0  0  0  0
   -6.3713    5.9950    1.8379 H   0  0  0  0  0  0  0  0  0  0  0  0
   -4.4295    3.5565    4.8207 H   0  0  0  0  0  0  0  0  0  0  0  0
   -3.8998    1.8790    3.1156 H   0  0  0  0  0  0  0  0  0  0  0  0
   -6.6468    6.4917    4.2581 H   0  0  0  0  0  0  0  0  0  0  0  0
   -4.8943    6.6338    4.5422 H   0  0  0  0  0  0  0  0  0  0  0  0
   -5.8754    5.4823    5.4826 H   0  0  0  0  0  0  0  0  0  0  0  0
  1  2  1  0  0  0  0
  1 36  1  0  0  0  0
  1 37  1  0  0  0  0
  1 38  1  0  0  0  0
  2  3  2  0  0  0  0
  2  7  1  0  0  0  0
  3  4  1  0  0  0  0
  3 39  1  0  0  0  0
  4  5  2  0  0  0  0
  4 40  1  0  0  0  0
  5  6  1  0  0  0  0
  5  8  1  0  0  0  0
  6  7  2  0  0  0  0
  6 41  1  0  0  0  0
  7 42  1  0  0  0  0
  8  9  2  0  0  0  0
  8 26  1  0  0  0  0
  9 10  1  0  0  0  0
  9 43  1  0  0  0  0
 10 11  2  0  0  0  0
 10 18  1  0  0  0  0
 11 12  1  0  0  0  0
 12 13  2  0  0  0  0
 12 17  1  0  0  0  0
 13 14  1  0  0  0  0
 13 44  1  0  0  0  0
 14 15  2  0  0  0  0
 14 45  1  0  0  0  0
 15 16  1  0  0  0  0
 15 46  1  0  0  0  0
 16 17  2  0  0  0  0
 16 47  1  0  0  0  0
 17 18  1  0  0  0  0
 18 19  1  0  0  0  0
 19 20  1  0  0  0  0
 19 48  1  0  0  0  0
 19 49  1  0  0  0  0
 20 21  2  0  0  0  0
 20 25  1  0  0  0  0
 21 22  1  0  0  0  0
 21 50  1  0  0  0  0
 22 23  2  0  0  0  0
 22 51  1  0  0  0  0
 23 24  1  0  0  0  0
 23 52  1  0  0  0  0
 24 25  2  0  0  0  0
 24 53  1  0  0  0  0
 25 54  1  0  0  0  0
 26 27  1  0  0  0  0
 27 28  2  0  0  0  0
 27 29  1  0  0  0  0
 29 30  2  0  0  0  0
 29 34  1  0  0  0  0
 30 31  1  0  0  0  0
 30 55  1  0  0  0  0
 31 32  2  0  0  0  0
 31 56  1  0  0  0  0
 32 33  1  0  0  0  0
 32 35  1  0  0  0  0
 33 34  2  0  0  0  0
 33 57  1  0  0  0  0
 34 58  1  0  0  0  0
 35 59  1  0  0  0  0
 35 60  1  0  0  0  0
 35 61  1  0  0  0  0
M  END
