
 OpenBabel10072620083D

 36 37  0  0  0  0  0  0  0  0999 V2000
    2.0994    0.2760   -0.9428 C   0  0  0  0  0  0  0  0  0  0  0  0
    3.1078   -0.8494   -1.0883 C   0  0  0  0  0  0  0  0  0  0  0  0
    3.3377   -1.5611    0.1594 N   0  0  0  0  0  0  0  0  0  0  0  0
    4.2945   -1.3122    1.1247 C   0  0  0  0  0  0  0  0  0  0  0  0
    4.0987   -2.3131    2.0633 C   0  0  0  0  0  0  0  0  0  0  0  0
    3.0455   -3.1030    1.5758 C   0  0  0  0  0  0  0  0  0  0  0  0
    2.5895   -2.6596    0.4052 N   0  0  0  0  0  0  0  0  0  0  0  0
    4.9032   -2.5858    3.5319 Cl  0  0  0  0  0  0  0  0  0  0  0  0
    5.2265   -0.2030    1.0897 C   0  0  0  0  0  0  0  0  0  0  0  0
    5.0649    0.7614    0.3497 O   0  0  0  0  0  0  0  0  0  0  0  0
    6.3974   -0.3987    1.8199 N   0  0  0  0  0  0  0  0  0  0  0  0
    7.2218    0.5528    2.4432 C   0  0  0  0  0  0  0  0  0  0  0  0
    6.8552    2.1743    2.6098 S   0  0  0  0  0  0  0  0  0  0  0  0
    8.4056   -0.0787    2.8366 N   0  0  0  0  0  0  0  0  0  0  0  0
    9.3983    0.3325    3.7616 C   0  0  0  0  0  0  0  0  0  0  0  0
   10.7223   -0.1314    3.5955 C   0  0  0  0  0  0  0  0  0  0  0  0
   11.7051    0.2273    4.5381 C   0  0  0  0  0  0  0  0  0  0  0  0
   11.3808    1.0295    5.6295 C   0  0  0  0  0  0  0  0  0  0  0  0
   10.0741    1.4726    5.8067 C   0  0  0  0  0  0  0  0  0  0  0  0
    9.0877    1.1097    4.8832 C   0  0  0  0  0  0  0  0  0  0  0  0
   12.8417    1.5482    7.0112 I   0  0  0  0  0  0  0  0  0  0  0  0
   11.1356   -0.9709    2.4152 C   0  0  0  0  0  0  0  0  0  0  0  0
    1.9636    0.7846   -1.9030 H   0  0  0  0  0  0  0  0  0  0  0  0
    2.4241    1.0164   -0.2049 H   0  0  0  0  0  0  0  0  0  0  0  0
    1.1263   -0.1096   -0.6203 H   0  0  0  0  0  0  0  0  0  0  0  0
    4.0675   -0.4857   -1.4647 H   0  0  0  0  0  0  0  0  0  0  0  0
    2.7464   -1.5810   -1.8205 H   0  0  0  0  0  0  0  0  0  0  0  0
    2.5953   -3.9842    2.0140 H   0  0  0  0  0  0  0  0  0  0  0  0
    6.5043   -1.3169    2.2259 H   0  0  0  0  0  0  0  0  0  0  0  0
    8.7024   -0.7896    2.1802 H   0  0  0  0  0  0  0  0  0  0  0  0
   12.7294   -0.1197    4.4105 H   0  0  0  0  0  0  0  0  0  0  0  0
    9.7993    2.0896    6.6572 H   0  0  0  0  0  0  0  0  0  0  0  0
    8.0685    1.4231    5.0901 H   0  0  0  0  0  0  0  0  0  0  0  0
   10.9540   -0.4228    1.4845 H   0  0  0  0  0  0  0  0  0  0  0  0
   10.5757   -1.9116    2.4035 H   0  0  0  0  0  0  0  0  0  0  0  0
   12.2006   -1.2245    2.4466 H   0  0  0  0  0  0  0  0  0  0  0  0
  1  2  1  0  0  0  0
  1 23  1  0  0  0  0
  1 24  1  0  0  0  0
  1 25  1  0  0  0  0
  2  3  1  0  0  0  0
  2 26  1  0  0  0  0
  2 27  1  0  0  0  0
  3  4  1  0  0  0  0
  3  7  1  0  0  0  0
  4  5  2  0  0  0  0
  4  9  1  0  0  0  0
  5  6  1  0  0  0  0
  5  8  1  0  0  0  0
  6  7  2  0  0  0  0
  6 28  1  0  0  0  0
  9 10  2  0  0  0  0
  9 11  1  0  0  0  0
 11 12  1  0  0  0  0
 11 29  1  0  0  0  0
 12 13  2  0  0  0  0
 12 14  1  0  0  0  0
 14 15  1  0  0  0  0
 14 30  1  0  0  0  0
 15 16  2  0  0  0  0
 15 20  1  0  0  0  0
 16 17  1  0  0  0  0
 16 22  1  0  0  0  0
 17 18  2  0  0  0  0
 17 31  1  0  0  0  0
 18 19  1  0  0  0  0
 18 21  1  0  0  0  0
 19 20  2  0  0  0  0
 19 32  1  0  0  0  0
 20 33  1  0  0  0  0
 22 34  1  0  0  0  0
 22 35  1  0  0  0  0
 22 36  1  0  0  0  0
M  END
