
 OpenBabel10072620223D

 35 36  0  0  0  0  0  0  0  0999 V2000
    0.7249    0.1163   -0.7077 C   0  0  0  0  0  0  0  0  0  0  0  0
    2.1391   -0.3990   -0.5054 C   0  0  0  0  0  0  0  0  0  0  0  0
    2.9412    0.0782   -1.5853 O   0  0  0  0  0  0  0  0  0  0  0  0
    4.2847   -0.1622   -1.5082 C   0  0  0  0  0  0  0  0  0  0  0  0
    4.9139   -1.0261   -0.6144 C   0  0  0  0  0  0  0  0  0  0  0  0
    6.3088   -1.1747   -0.6329 C   0  0  0  0  0  0  0  0  0  0  0  0
    7.0890   -0.4643   -1.5453 C   0  0  0  0  0  0  0  0  0  0  0  0
    6.4521    0.3946   -2.4472 C   0  0  0  0  0  0  0  0  0  0  0  0
    5.0607    0.5370   -2.4312 C   0  0  0  0  0  0  0  0  0  0  0  0
    8.4970   -0.5293   -1.5982 N   0  0  0  0  0  0  0  0  0  0  0  0
    9.3289   -1.4013   -0.9123 C   0  0  0  0  0  0  0  0  0  0  0  0
    8.9545   -2.3566   -0.2456 O   0  0  0  0  0  0  0  0  0  0  0  0
   10.6538   -1.0321   -1.0870 N   0  0  0  0  0  0  0  0  0  0  0  0
   11.8120   -1.7209   -0.6530 C   0  0  0  0  0  0  0  0  0  0  0  0
   13.0553   -1.0612   -0.7249 C   0  0  0  0  0  0  0  0  0  0  0  0
   14.2340   -1.6906   -0.3193 C   0  0  0  0  0  0  0  0  0  0  0  0
   14.1821   -3.0003    0.1449 C   0  0  0  0  0  0  0  0  0  0  0  0
   12.9665   -3.6755    0.2135 C   0  0  0  0  0  0  0  0  0  0  0  0
   11.7847   -3.0362   -0.1790 C   0  0  0  0  0  0  0  0  0  0  0  0
   15.6294   -3.7892    0.6343 Cl  0  0  0  0  0  0  0  0  0  0  0  0
   13.1691    0.5630   -1.3180 Cl  0  0  0  0  0  0  0  0  0  0  0  0
    0.0718   -0.2055    0.1086 H   0  0  0  0  0  0  0  0  0  0  0  0
    0.3123   -0.2482   -1.6544 H   0  0  0  0  0  0  0  0  0  0  0  0
    0.7168    1.2102   -0.7572 H   0  0  0  0  0  0  0  0  0  0  0  0
    2.1240   -1.4947   -0.4992 H   0  0  0  0  0  0  0  0  0  0  0  0
    2.5210   -0.0228    0.4512 H   0  0  0  0  0  0  0  0  0  0  0  0
    4.3539   -1.6038    0.1126 H   0  0  0  0  0  0  0  0  0  0  0  0
    6.7543   -1.8502    0.0917 H   0  0  0  0  0  0  0  0  0  0  0  0
    7.0218    0.9656   -3.1744 H   0  0  0  0  0  0  0  0  0  0  0  0
    4.5802    1.2107   -3.1362 H   0  0  0  0  0  0  0  0  0  0  0  0
    8.9399    0.0325   -2.3092 H   0  0  0  0  0  0  0  0  0  0  0  0
   10.8167   -0.0848   -1.4037 H   0  0  0  0  0  0  0  0  0  0  0  0
   15.1835   -1.1654   -0.3685 H   0  0  0  0  0  0  0  0  0  0  0  0
   12.9247   -4.7035    0.5667 H   0  0  0  0  0  0  0  0  0  0  0  0
   10.8584   -3.5999   -0.1132 H   0  0  0  0  0  0  0  0  0  0  0  0
  1  2  1  0  0  0  0
  1 22  1  0  0  0  0
  1 23  1  0  0  0  0
  1 24  1  0  0  0  0
  2  3  1  0  0  0  0
  2 25  1  0  0  0  0
  2 26  1  0  0  0  0
  3  4  1  0  0  0  0
  4  5  2  0  0  0  0
  4  9  1  0  0  0  0
  5  6  1  0  0  0  0
  5 27  1  0  0  0  0
  6  7  2  0  0  0  0
  6 28  1  0  0  0  0
  7  8  1  0  0  0  0
  7 10  1  0  0  0  0
  8  9  2  0  0  0  0
  8 29  1  0  0  0  0
  9 30  1  0  0  0  0
 10 11  1  0  0  0  0
 10 31  1  0  0  0  0
 11 12  2  0  0  0  0
 11 13  1  0  0  0  0
 13 14  1  0  0  0  0
 13 32  1  0  0  0  0
 14 15  2  0  0  0  0
 14 19  1  0  0  0  0
 15 16  1  0  0  0  0
 15 21  1  0  0  0  0
 16 17  2  0  0  0  0
 16 33  1  0  0  0  0
 17 18  1  0  0  0  0
 17 20  1  0  0  0  0
 18 19  2  0  0  0  0
 18 34  1  0  0  0  0
 19 35  1  0  0  0  0
M  END
