
 OpenBabel10072619523D

 51 54  0  0  0  0  0  0  0  0999 V2000
    2.4821   -0.0879    0.0952 C   0  0  0  0  0  0  0  0  0  0  0  0
    0.9886   -0.0452   -0.0318 C   0  0  0  0  0  0  0  0  0  0  0  0
    0.3670    1.0015   -0.7234 C   0  0  0  0  0  0  0  0  0  0  0  0
   -1.0222    1.0291   -0.8645 C   0  0  0  0  0  0  0  0  0  0  0  0
   -1.8028   -0.0003   -0.3193 C   0  0  0  0  0  0  0  0  0  0  0  0
   -1.1810   -1.0647    0.3484 C   0  0  0  0  0  0  0  0  0  0  0  0
    0.2082   -1.0852    0.4882 C   0  0  0  0  0  0  0  0  0  0  0  0
   -3.2196    0.0530   -0.4084 N   0  0  0  0  0  0  0  0  0  0  0  0
   -3.8551    1.0899   -1.0059 N   0  0  0  0  0  0  0  0  0  0  0  0
   -5.1417    0.8584   -0.7222 C   0  0  0  0  0  0  0  0  0  0  0  0
   -6.2693    1.6333   -1.0274 C   0  0  0  0  0  0  0  0  0  0  0  0
   -7.4885    1.1215   -0.5234 C   0  0  0  0  0  0  0  0  0  0  0  0
   -7.6021   -0.0801    0.2263 C   0  0  0  0  0  0  0  0  0  0  0  0
   -6.4684   -0.8922    0.4788 C   0  0  0  0  0  0  0  0  0  0  0  0
   -5.2375   -0.3920    0.0143 C   0  0  0  0  0  0  0  0  0  0  0  0
   -4.0051   -0.8998    0.1537 N   0  0  0  0  0  0  0  0  0  0  0  0
   -8.8056   -0.5572    0.8038 N   0  0  0  0  0  0  0  0  0  0  0  0
  -10.0531   -0.0116    1.0109 C   0  0  0  0  0  0  0  0  0  0  0  0
  -10.6923    1.4513    0.5277 S   0  0  0  0  0  0  0  0  0  0  0  0
  -10.8900   -0.7853    1.8076 N   0  0  0  0  0  0  0  0  0  0  0  0
  -10.5873   -1.9574    2.4817 C   0  0  0  0  0  0  0  0  0  0  0  0
   -9.6433   -2.6908    2.2013 O   0  0  0  0  0  0  0  0  0  0  0  0
  -11.5064   -2.3275    3.5814 C   0  0  0  0  0  0  0  0  0  0  0  0
  -11.9231   -1.3754    4.5137 C   0  0  0  0  0  0  0  0  0  0  0  0
  -12.7124   -1.7970    5.5921 C   0  0  0  0  0  0  0  0  0  0  0  0
  -13.1067   -3.1310    5.7663 C   0  0  0  0  0  0  0  0  0  0  0  0
  -12.6849   -4.0642    4.8131 C   0  0  0  0  0  0  0  0  0  0  0  0
  -11.8706   -3.6697    3.7409 C   0  0  0  0  0  0  0  0  0  0  0  0
  -13.8503   -3.4264    6.8724 O   0  0  0  0  0  0  0  0  0  0  0  0
  -14.1757   -4.7902    7.1106 C   0  0  0  0  0  0  0  0  0  0  0  0
  -13.1111   -0.7990    6.5644 N   0  3  0  0  0  0  0  0  0  0  0  0
  -12.2072   -0.2908    7.2438 O   0  0  0  0  0  0  0  0  0  0  0  0
  -14.3059   -0.4801    6.5887 O   0  5  0  0  0  0  0  0  0  0  0  0
    2.9063    0.9217    0.0803 H   0  0  0  0  0  0  0  0  0  0  0  0
    2.9069   -0.6635   -0.7329 H   0  0  0  0  0  0  0  0  0  0  0  0
    2.7773   -0.5508    1.0429 H   0  0  0  0  0  0  0  0  0  0  0  0
    0.9616    1.8072   -1.1502 H   0  0  0  0  0  0  0  0  0  0  0  0
   -1.4792    1.8638   -1.3921 H   0  0  0  0  0  0  0  0  0  0  0  0
   -1.7629   -1.8795    0.7747 H   0  0  0  0  0  0  0  0  0  0  0  0
    0.6798   -1.9149    1.0118 H   0  0  0  0  0  0  0  0  0  0  0  0
   -6.2047    2.5601   -1.5828 H   0  0  0  0  0  0  0  0  0  0  0  0
   -8.3675    1.7082   -0.7642 H   0  0  0  0  0  0  0  0  0  0  0  0
   -6.5097   -1.8156    1.0408 H   0  0  0  0  0  0  0  0  0  0  0  0
   -8.7154   -1.4850    1.2242 H   0  0  0  0  0  0  0  0  0  0  0  0
  -11.7813   -0.3402    1.9897 H   0  0  0  0  0  0  0  0  0  0  0  0
  -11.6037   -0.3383    4.4420 H   0  0  0  0  0  0  0  0  0  0  0  0
  -12.9527   -5.1154    4.8861 H   0  0  0  0  0  0  0  0  0  0  0  0
  -11.5071   -4.4211    3.0392 H   0  0  0  0  0  0  0  0  0  0  0  0
  -13.2716   -5.4004    7.2021 H   0  0  0  0  0  0  0  0  0  0  0  0
  -14.8414   -5.1785    6.3326 H   0  0  0  0  0  0  0  0  0  0  0  0
  -14.7071   -4.8410    8.0651 H   0  0  0  0  0  0  0  0  0  0  0  0
  1  2  1  0  0  0  0
  1 34  1  0  0  0  0
  1 35  1  0  0  0  0
  1 36  1  0  0  0  0
  2  3  2  0  0  0  0
  2  7  1  0  0  0  0
  3  4  1  0  0  0  0
  3 37  1  0  0  0  0
  4  5  2  0  0  0  0
  4 38  1  0  0  0  0
  5  6  1  0  0  0  0
  5  8  1  0  0  0  0
  6  7  2  0  0  0  0
  6 39  1  0  0  0  0
  7 40  1  0  0  0  0
  8  9  1  0  0  0  0
  8 16  1  0  0  0  0
  9 10  2  0  0  0  0
 10 11  1  0  0  0  0
 10 15  1  0  0  0  0
 11 12  2  0  0  0  0
 11 41  1  0  0  0  0
 12 13  1  0  0  0  0
 12 42  1  0  0  0  0
 13 14  2  0  0  0  0
 13 17  1  0  0  0  0
 14 15  1  0  0  0  0
 14 43  1  0  0  0  0
 15 16  2  0  0  0  0
 17 18  1  0  0  0  0
 17 44  1  0  0  0  0
 18 19  2  0  0  0  0
 18 20  1  0  0  0  0
 20 21  1  0  0  0  0
 20 45  1  0  0  0  0
 21 22  2  0  0  0  0
 21 23  1  0  0  0  0
 23 24  2  0  0  0  0
 23 28  1  0  0  0  0
 24 25  1  0  0  0  0
 24 46  1  0  0  0  0
 25 26  2  0  0  0  0
 25 31  1  0  0  0  0
 26 27  1  0  0  0  0
 26 29  1  0  0  0  0
 27 28  2  0  0  0  0
 27 47  1  0  0  0  0
 28 48  1  0  0  0  0
 29 30  1  0  0  0  0
 30 49  1  0  0  0  0
 30 50  1  0  0  0  0
 30 51  1  0  0  0  0
 31 32  2  0  0  0  0
 31 33  1  0  0  0  0
M  CHG  2  31   1  33  -1
M  END
