
 OpenBabel10072619483D

 38 39  0  0  0  0  0  0  0  0999 V2000
    0.8277   -0.3836    1.8116 C   0  0  0  0  0  0  0  0  0  0  0  0
    0.5658    0.2232    0.5847 C   0  0  0  0  0  0  0  0  0  0  0  0
   -0.7522    0.4342    0.1768 C   0  0  0  0  0  0  0  0  0  0  0  0
   -1.8203    0.0447    0.9961 C   0  0  0  0  0  0  0  0  0  0  0  0
   -1.5459   -0.5653    2.2278 C   0  0  0  0  0  0  0  0  0  0  0  0
   -0.2271   -0.7774    2.6333 C   0  0  0  0  0  0  0  0  0  0  0  0
   -3.2443    0.2583    0.5456 C   0  0  0  0  0  0  0  0  0  0  0  0
   -3.8517   -1.0187   -0.0287 C   0  0  0  0  0  0  0  0  0  0  0  0
   -5.2436   -0.7774   -0.5689 C   0  0  0  0  0  0  0  0  0  0  0  0
   -5.8195    0.3082   -0.5500 O   0  0  0  0  0  0  0  0  0  0  0  0
   -5.8186   -1.9113   -1.1120 N   0  0  0  0  0  0  0  0  0  0  0  0
   -7.1857   -1.8273   -1.4636 N   0  0  0  0  0  0  0  0  0  0  0  0
   -7.9905   -2.8836   -1.0512 C   0  0  0  0  0  0  0  0  0  0  0  0
   -7.5093   -3.8861   -0.5328 O   0  0  0  0  0  0  0  0  0  0  0  0
   -9.3152   -2.6410   -1.3418 N   0  0  0  0  0  0  0  0  0  0  0  0
  -10.4271   -3.4508   -1.0393 C   0  0  0  0  0  0  0  0  0  0  0  0
  -10.3582   -4.6120   -0.2675 C   0  0  0  0  0  0  0  0  0  0  0  0
  -11.5127   -5.3573   -0.0055 C   0  0  0  0  0  0  0  0  0  0  0  0
  -12.7443   -4.9465   -0.5105 C   0  0  0  0  0  0  0  0  0  0  0  0
  -12.8245   -3.7871   -1.2768 C   0  0  0  0  0  0  0  0  0  0  0  0
  -11.6713   -3.0429   -1.5390 C   0  0  0  0  0  0  0  0  0  0  0  0
    1.8541   -0.5477    2.1285 H   0  0  0  0  0  0  0  0  0  0  0  0
    1.3882    0.5332   -0.0552 H   0  0  0  0  0  0  0  0  0  0  0  0
   -0.9397    0.9083   -0.7841 H   0  0  0  0  0  0  0  0  0  0  0  0
   -2.3585   -0.8764    2.8804 H   0  0  0  0  0  0  0  0  0  0  0  0
   -0.0224   -1.2490    3.5912 H   0  0  0  0  0  0  0  0  0  0  0  0
   -3.2769    1.0650   -0.1983 H   0  0  0  0  0  0  0  0  0  0  0  0
   -3.8412    0.6160    1.3942 H   0  0  0  0  0  0  0  0  0  0  0  0
   -3.9105   -1.7937    0.7449 H   0  0  0  0  0  0  0  0  0  0  0  0
   -3.2280   -1.4040   -0.8447 H   0  0  0  0  0  0  0  0  0  0  0  0
   -5.5081   -2.8404   -0.8231 H   0  0  0  0  0  0  0  0  0  0  0  0
   -7.5650   -0.8857   -1.3698 H   0  0  0  0  0  0  0  0  0  0  0  0
   -9.4904   -1.8363   -1.9257 H   0  0  0  0  0  0  0  0  0  0  0  0
   -9.4204   -4.9654    0.1495 H   0  0  0  0  0  0  0  0  0  0  0  0
  -11.4451   -6.2601    0.5966 H   0  0  0  0  0  0  0  0  0  0  0  0
  -13.6389   -5.5280   -0.3036 H   0  0  0  0  0  0  0  0  0  0  0  0
  -13.7837   -3.4612   -1.6709 H   0  0  0  0  0  0  0  0  0  0  0  0
  -11.7621   -2.1421   -2.1402 H   0  0  0  0  0  0  0  0  0  0  0  0
  1  2  2  0  0  0  0
  1  6  1  0  0  0  0
  1 22  1  0  0  0  0
  2  3  1  0  0  0  0
  2 23  1  0  0  0  0
  3  4  2  0  0  0  0
  3 24  1  0  0  0  0
  4  5  1  0  0  0  0
  4  7  1  0  0  0  0
  5  6  2  0  0  0  0
  5 25  1  0  0  0  0
  6 26  1  0  0  0  0
  7  8  1  0  0  0  0
  7 27  1  0  0  0  0
  7 28  1  0  0  0  0
  8  9  1  0  0  0  0
  8 29  1  0  0  0  0
  8 30  1  0  0  0  0
  9 10  2  0  0  0  0
  9 11  1  0  0  0  0
 11 12  1  0  0  0  0
 11 31  1  0  0  0  0
 12 13  1  0  0  0  0
 12 32  1  0  0  0  0
 13 14  2  0  0  0  0
 13 15  1  0  0  0  0
 15 16  1  0  0  0  0
 15 33  1  0  0  0  0
 16 17  2  0  0  0  0
 16 21  1  0  0  0  0
 17 18  1  0  0  0  0
 17 34  1  0  0  0  0
 18 19  2  0  0  0  0
 18 35  1  0  0  0  0
 19 20  1  0  0  0  0
 19 36  1  0  0  0  0
 20 21  2  0  0  0  0
 20 37  1  0  0  0  0
 21 38  1  0  0  0  0
M  END
