
 OpenBabel10072620233D

 56 59  0  0  0  0  0  0  0  0999 V2000
    2.1653    0.5991   -3.4916 C   0  0  0  0  0  0  0  0  0  0  0  0
    2.8470   -0.4152   -2.5841 C   0  0  0  0  0  0  0  0  0  0  0  0
    4.1999    0.0526   -2.1778 N   0  0  0  0  0  0  0  0  0  0  0  0
    4.2298    1.3604   -1.4500 C   0  0  0  0  0  0  0  0  0  0  0  0
    3.3706    1.3841   -0.1939 C   0  0  0  0  0  0  0  0  0  0  0  0
    5.2410   -1.1126   -1.4839 S   0  0  0  0  0  0  0  0  0  0  0  0
    6.5954   -0.5996   -1.5562 O   0  0  0  0  0  0  0  0  0  0  0  0
    4.6660   -1.5181   -0.2200 O   0  0  0  0  0  0  0  0  0  0  0  0
    5.1481   -2.4993   -2.5794 C   0  0  0  0  0  0  0  0  0  0  0  0
    5.7675   -2.4667   -3.8255 C   0  0  0  0  0  0  0  0  0  0  0  0
    5.7860   -3.6198   -4.6337 C   0  0  0  0  0  0  0  0  0  0  0  0
    5.2491   -4.8213   -4.1893 C   0  0  0  0  0  0  0  0  0  0  0  0
    4.5368   -4.7792   -2.9634 C   0  0  0  0  0  0  0  0  0  0  0  0
    4.4924   -3.6464   -2.1562 C   0  0  0  0  0  0  0  0  0  0  0  0
    5.1930   -6.0586   -4.8492 N   0  0  0  0  0  0  0  0  0  0  0  0
    5.5450   -6.8528   -5.9715 C   0  0  0  0  0  0  0  0  0  0  0  0
    6.5285   -6.6456   -6.9499 C   0  0  0  0  0  0  0  0  0  0  0  0
    6.8787   -5.2934   -7.5015 C   0  0  0  0  0  0  0  0  0  0  0  0
    7.8990   -5.1539   -8.6443 C   0  0  0  0  0  0  0  0  0  0  0  0
    8.3357   -6.4394   -9.3327 C   0  0  0  0  0  0  0  0  0  0  0  0
    8.2751   -7.6735   -8.4410 C   0  0  0  0  0  0  0  0  0  0  0  0
    6.9919   -7.7635   -7.6467 C   0  0  0  0  0  0  0  0  0  0  0  0
    6.3459   -8.9589   -7.6255 N   0  0  0  0  0  0  0  0  0  0  0  0
    5.1697   -9.0304   -6.9808 C   0  0  0  0  0  0  0  0  0  0  0  0
    4.3046  -10.1058   -7.2166 C   0  0  0  0  0  0  0  0  0  0  0  0
    3.0503  -10.2225   -6.5954 C   0  0  0  0  0  0  0  0  0  0  0  0
    2.6196   -9.2502   -5.7097 C   0  0  0  0  0  0  0  0  0  0  0  0
    3.4480   -8.1546   -5.4875 C   0  0  0  0  0  0  0  0  0  0  0  0
    4.7269   -8.0235   -6.1136 C   0  0  0  0  0  0  0  0  0  0  0  0
    1.2841    0.1540   -3.9639 H   0  0  0  0  0  0  0  0  0  0  0  0
    2.8422    0.9389   -4.2831 H   0  0  0  0  0  0  0  0  0  0  0  0
    1.8307    1.4766   -2.9304 H   0  0  0  0  0  0  0  0  0  0  0  0
    2.9370   -1.3327   -3.1718 H   0  0  0  0  0  0  0  0  0  0  0  0
    2.2256   -0.6462   -1.7145 H   0  0  0  0  0  0  0  0  0  0  0  0
    3.9137    2.1531   -2.1358 H   0  0  0  0  0  0  0  0  0  0  0  0
    5.2641    1.6092   -1.1850 H   0  0  0  0  0  0  0  0  0  0  0  0
    2.3236    1.1492   -0.4046 H   0  0  0  0  0  0  0  0  0  0  0  0
    3.3975    2.3802    0.2581 H   0  0  0  0  0  0  0  0  0  0  0  0
    3.7278    0.6750    0.5576 H   0  0  0  0  0  0  0  0  0  0  0  0
    6.2459   -1.5535   -4.1751 H   0  0  0  0  0  0  0  0  0  0  0  0
    6.2516   -3.5131   -5.5965 H   0  0  0  0  0  0  0  0  0  0  0  0
    3.9987   -5.6597   -2.6121 H   0  0  0  0  0  0  0  0  0  0  0  0
    3.9643   -3.6799   -1.2067 H   0  0  0  0  0  0  0  0  0  0  0  0
    5.0671   -6.7531   -4.1027 H   0  0  0  0  0  0  0  0  0  0  0  0
    7.2288   -4.6586   -6.6992 H   0  0  0  0  0  0  0  0  0  0  0  0
    5.9327   -4.9030   -7.9052 H   0  0  0  0  0  0  0  0  0  0  0  0
    8.7751   -4.5993   -8.2787 H   0  0  0  0  0  0  0  0  0  0  0  0
    7.4668   -4.4902   -9.4087 H   0  0  0  0  0  0  0  0  0  0  0  0
    9.3581   -6.3201   -9.7223 H   0  0  0  0  0  0  0  0  0  0  0  0
    7.6952   -6.5905  -10.2088 H   0  0  0  0  0  0  0  0  0  0  0  0
    9.1188   -7.6581   -7.7374 H   0  0  0  0  0  0  0  0  0  0  0  0
    8.4123   -8.5678   -9.0619 H   0  0  0  0  0  0  0  0  0  0  0  0
    4.5970  -10.8375   -7.9659 H   0  0  0  0  0  0  0  0  0  0  0  0
    2.3955  -11.0552   -6.8423 H   0  0  0  0  0  0  0  0  0  0  0  0
    1.6355   -9.3052   -5.2443 H   0  0  0  0  0  0  0  0  0  0  0  0
    3.0390   -7.3366   -4.8948 H   0  0  0  0  0  0  0  0  0  0  0  0
  1  2  1  0  0  0  0
  1 30  1  0  0  0  0
  1 31  1  0  0  0  0
  1 32  1  0  0  0  0
  2  3  1  0  0  0  0
  2 33  1  0  0  0  0
  2 34  1  0  0  0  0
  3  4  1  0  0  0  0
  3  6  1  0  0  0  0
  4  5  1  0  0  0  0
  4 35  1  0  0  0  0
  4 36  1  0  0  0  0
  5 37  1  0  0  0  0
  5 38  1  0  0  0  0
  5 39  1  0  0  0  0
  6  7  2  0  0  0  0
  6  8  2  0  0  0  0
  6  9  1  0  0  0  0
  9 10  2  0  0  0  0
  9 14  1  0  0  0  0
 10 11  1  0  0  0  0
 10 40  1  0  0  0  0
 11 12  2  0  0  0  0
 11 41  1  0  0  0  0
 12 13  1  0  0  0  0
 12 15  1  0  0  0  0
 13 14  2  0  0  0  0
 13 42  1  0  0  0  0
 14 43  1  0  0  0  0
 15 16  1  0  0  0  0
 15 44  1  0  0  0  0
 16 17  2  0  0  0  0
 16 29  1  0  0  0  0
 17 18  1  0  0  0  0
 17 22  1  0  0  0  0
 18 19  1  0  0  0  0
 18 45  1  0  0  0  0
 18 46  1  0  0  0  0
 19 20  1  0  0  0  0
 19 47  1  0  0  0  0
 19 48  1  0  0  0  0
 20 21  1  0  0  0  0
 20 49  1  0  0  0  0
 20 50  1  0  0  0  0
 21 22  1  0  0  0  0
 21 51  1  0  0  0  0
 21 52  1  0  0  0  0
 22 23  2  0  0  0  0
 23 24  1  0  0  0  0
 24 25  2  0  0  0  0
 24 29  1  0  0  0  0
 25 26  1  0  0  0  0
 25 53  1  0  0  0  0
 26 27  2  0  0  0  0
 26 54  1  0  0  0  0
 27 28  1  0  0  0  0
 27 55  1  0  0  0  0
 28 29  2  0  0  0  0
 28 56  1  0  0  0  0
M  END
