
 OpenBabel10072620193D

 63 66  0  0  0  0  0  0  0  0999 V2000
    1.5563   -2.4757   -1.7352 C   0  0  0  0  0  0  0  0  0  0  0  0
    2.7478   -1.9423   -1.1668 O   0  0  0  0  0  0  0  0  0  0  0  0
    3.3487   -0.9098   -1.8327 C   0  0  0  0  0  0  0  0  0  0  0  0
    2.8429   -0.2440   -2.9488 C   0  0  0  0  0  0  0  0  0  0  0  0
    3.5607    0.8200   -3.5337 C   0  0  0  0  0  0  0  0  0  0  0  0
    4.8216    1.1830   -3.0182 C   0  0  0  0  0  0  0  0  0  0  0  0
    5.3185    0.5106   -1.9010 C   0  0  0  0  0  0  0  0  0  0  0  0
    4.5817   -0.5195   -1.3097 C   0  0  0  0  0  0  0  0  0  0  0  0
    5.4792    2.2100   -3.6443 O   0  0  0  0  0  0  0  0  0  0  0  0
    6.8684    2.3574   -3.3712 C   0  0  0  0  0  0  0  0  0  0  0  0
    3.0111    1.4893   -4.7311 C   0  0  0  0  0  0  0  0  0  0  0  0
    1.8106    2.1026   -4.8261 C   0  0  0  0  0  0  0  0  0  0  0  0
    1.5316    2.7371   -6.1763 C   0  0  0  0  0  0  0  0  0  0  0  0
    2.4575    3.0837   -6.9056 O   0  0  0  0  0  0  0  0  0  0  0  0
    0.2033    2.8408   -6.4950 N   0  0  0  0  0  0  0  0  0  0  0  0
   -0.0612    3.9798   -6.9348 N   0  0  0  0  0  0  0  0  0  0  0  0
   -1.3368    4.0794   -7.5102 C   0  0  0  0  0  0  0  0  0  0  0  0
   -2.3858    3.1865   -7.4555 C   0  0  0  0  0  0  0  0  0  0  0  0
   -3.3460    3.6476   -8.3243 N   0  0  0  0  0  0  0  0  0  0  0  0
   -3.0260    4.9247   -8.7516 C   0  0  0  0  0  0  0  0  0  0  0  0
   -3.7337    5.8477   -9.5373 C   0  0  0  0  0  0  0  0  0  0  0  0
   -3.1372    7.0852   -9.8032 C   0  0  0  0  0  0  0  0  0  0  0  0
   -1.8683    7.3900   -9.3192 C   0  0  0  0  0  0  0  0  0  0  0  0
   -1.1579    6.4575   -8.5580 C   0  0  0  0  0  0  0  0  0  0  0  0
   -1.7488    5.2118   -8.2572 C   0  0  0  0  0  0  0  0  0  0  0  0
   -4.5095    2.8859   -8.7501 C   0  0  0  0  0  0  0  0  0  0  0  0
   -5.6507    2.9518   -7.7534 C   0  0  0  0  0  0  0  0  0  0  0  0
   -7.0832    2.1021   -8.3956 Cl  0  0  0  0  0  0  0  0  0  0  0  0
   -2.5684    2.0683   -6.7560 O   0  0  0  0  0  0  0  0  0  0  0  0
    1.0422    2.2945   -3.6936 N   0  0  0  0  0  0  0  0  0  0  0  0
   -0.2928    2.5868   -3.5449 C   0  0  0  0  0  0  0  0  0  0  0  0
   -1.1957    2.3906   -4.3442 O   0  0  0  0  0  0  0  0  0  0  0  0
   -0.5858    3.0790   -2.1796 C   0  0  0  0  0  0  0  0  0  0  0  0
   -0.0211    4.2875   -1.7542 C   0  0  0  0  0  0  0  0  0  0  0  0
   -0.1571    4.6773   -0.4229 C   0  0  0  0  0  0  0  0  0  0  0  0
   -0.8436    3.8593    0.4759 C   0  0  0  0  0  0  0  0  0  0  0  0
   -1.4013    2.6526    0.0455 C   0  0  0  0  0  0  0  0  0  0  0  0
   -1.2860    2.2643   -1.2899 C   0  0  0  0  0  0  0  0  0  0  0  0
    1.2280   -3.3075   -1.1031 H   0  0  0  0  0  0  0  0  0  0  0  0
    1.7389   -2.8723   -2.7404 H   0  0  0  0  0  0  0  0  0  0  0  0
    0.7548   -1.7289   -1.7445 H   0  0  0  0  0  0  0  0  0  0  0  0
    1.8967   -0.5418   -3.3943 H   0  0  0  0  0  0  0  0  0  0  0  0
    6.2802    0.7609   -1.4674 H   0  0  0  0  0  0  0  0  0  0  0  0
    4.9793   -1.0402   -0.4409 H   0  0  0  0  0  0  0  0  0  0  0  0
    7.0422    2.7367   -2.3607 H   0  0  0  0  0  0  0  0  0  0  0  0
    7.2652    3.1003   -4.0668 H   0  0  0  0  0  0  0  0  0  0  0  0
    7.4106    1.4213   -3.5322 H   0  0  0  0  0  0  0  0  0  0  0  0
    3.6762    1.4398   -5.5934 H   0  0  0  0  0  0  0  0  0  0  0  0
   -4.7250    5.6282   -9.9179 H   0  0  0  0  0  0  0  0  0  0  0  0
   -3.6722    7.8202  -10.4013 H   0  0  0  0  0  0  0  0  0  0  0  0
   -1.4228    8.3592   -9.5300 H   0  0  0  0  0  0  0  0  0  0  0  0
   -0.1666    6.6977   -8.1802 H   0  0  0  0  0  0  0  0  0  0  0  0
   -4.1820    1.8537   -8.9172 H   0  0  0  0  0  0  0  0  0  0  0  0
   -4.8181    3.2742   -9.7265 H   0  0  0  0  0  0  0  0  0  0  0  0
   -5.9478    3.9855   -7.5531 H   0  0  0  0  0  0  0  0  0  0  0  0
   -5.3854    2.4797   -6.8036 H   0  0  0  0  0  0  0  0  0  0  0  0
   -1.9147    2.1013   -6.0149 H   0  0  0  0  0  0  0  0  0  0  0  0
    1.5506    2.1948   -2.8194 H   0  0  0  0  0  0  0  0  0  0  0  0
    0.5315    4.9170   -2.4479 H   0  0  0  0  0  0  0  0  0  0  0  0
    0.2891    5.6078   -0.0803 H   0  0  0  0  0  0  0  0  0  0  0  0
   -0.9299    4.1550    1.5196 H   0  0  0  0  0  0  0  0  0  0  0  0
   -1.9086    2.0057    0.7575 H   0  0  0  0  0  0  0  0  0  0  0  0
   -1.7074    1.3199   -1.6222 H   0  0  0  0  0  0  0  0  0  0  0  0
  1  2  1  0  0  0  0
  1 39  1  0  0  0  0
  1 40  1  0  0  0  0
  1 41  1  0  0  0  0
  2  3  1  0  0  0  0
  3  4  2  0  0  0  0
  3  8  1  0  0  0  0
  4  5  1  0  0  0  0
  4 42  1  0  0  0  0
  5  6  2  0  0  0  0
  5 11  1  0  0  0  0
  6  7  1  0  0  0  0
  6  9  1  0  0  0  0
  7  8  2  0  0  0  0
  7 43  1  0  0  0  0
  8 44  1  0  0  0  0
  9 10  1  0  0  0  0
 10 45  1  0  0  0  0
 10 46  1  0  0  0  0
 10 47  1  0  0  0  0
 11 12  2  0  0  0  0
 11 48  1  0  0  0  0
 12 13  1  0  0  0  0
 12 30  1  0  0  0  0
 13 14  2  0  0  0  0
 13 15  1  0  0  0  0
 15 16  2  3  0  0  0
 16 17  1  0  0  0  0
 17 18  2  0  0  0  0
 17 25  1  0  0  0  0
 18 19  1  0  0  0  0
 18 29  1  0  0  0  0
 19 20  1  0  0  0  0
 19 26  1  0  0  0  0
 20 21  2  0  0  0  0
 20 25  1  0  0  0  0
 21 22  1  0  0  0  0
 21 49  1  0  0  0  0
 22 23  2  0  0  0  0
 22 50  1  0  0  0  0
 23 24  1  0  0  0  0
 23 51  1  0  0  0  0
 24 25  2  0  0  0  0
 24 52  1  0  0  0  0
 26 27  1  0  0  0  0
 26 53  1  0  0  0  0
 26 54  1  0  0  0  0
 27 28  1  0  0  0  0
 27 55  1  0  0  0  0
 27 56  1  0  0  0  0
 29 57  1  0  0  0  0
 30 31  1  0  0  0  0
 30 58  1  0  0  0  0
 31 32  2  0  0  0  0
 31 33  1  0  0  0  0
 33 34  2  0  0  0  0
 33 38  1  0  0  0  0
 34 35  1  0  0  0  0
 34 59  1  0  0  0  0
 35 36  2  0  0  0  0
 35 60  1  0  0  0  0
 36 37  1  0  0  0  0
 36 61  1  0  0  0  0
 37 38  2  0  0  0  0
 37 62  1  0  0  0  0
 38 63  1  0  0  0  0
M  END
