
 OpenBabel10072619553D

 37 38  0  0  0  0  0  0  0  0999 V2000
   -0.0151    1.4591   -0.3178 C   0  0  0  0  0  0  0  0  0  0  0  0
    0.2511    0.6010   -1.5487 C   0  0  0  0  0  0  0  0  0  0  0  0
   -0.2066   -0.8411   -1.3180 C   0  0  0  0  0  0  0  0  0  0  0  0
    0.1714   -1.3922    0.0371 C   0  0  0  0  0  0  0  0  0  0  0  0
    0.6090   -0.5905    1.0265 C   0  0  0  0  0  0  0  0  0  0  0  0
    0.7152    0.9021    0.9044 C   0  0  0  0  0  0  0  0  0  0  0  0
    0.0442   -2.8860    0.2223 C   0  0  0  0  0  0  0  0  0  0  0  0
   -1.3856   -3.3976    0.0125 C   0  0  0  0  0  0  0  0  0  0  0  0
   -1.5270   -4.7637    0.5112 N   0  0  0  0  0  0  0  0  0  0  0  0
   -2.4943   -5.6919    0.1453 C   0  0  0  0  0  0  0  0  0  0  0  0
   -3.5568   -5.4546   -1.1221 S   0  0  0  0  0  0  0  0  0  0  0  0
   -2.4101   -6.7878    0.9820 N   0  0  0  0  0  0  0  0  0  0  0  0
   -2.9624   -8.0700    0.9526 C   0  0  0  0  0  0  0  0  0  0  0  0
   -3.5123   -8.6840   -0.1586 C   0  0  0  0  0  0  0  0  0  0  0  0
   -3.9955   -9.9861   -0.0391 C   0  0  0  0  0  0  0  0  0  0  0  0
   -3.9142  -10.6363    1.1853 C   0  0  0  0  0  0  0  0  0  0  0  0
   -3.3292   -9.9588    2.2373 C   0  0  0  0  0  0  0  0  0  0  0  0
   -2.8444   -8.7019    2.1444 N   0  0  0  0  0  0  0  0  0  0  0  0
   -1.0947    1.4829   -0.1221 H   0  0  0  0  0  0  0  0  0  0  0  0
    0.2976    2.4937   -0.4975 H   0  0  0  0  0  0  0  0  0  0  0  0
    1.3224    0.6181   -1.7845 H   0  0  0  0  0  0  0  0  0  0  0  0
   -0.2705    1.0181   -2.4177 H   0  0  0  0  0  0  0  0  0  0  0  0
    0.2108   -1.4723   -2.1111 H   0  0  0  0  0  0  0  0  0  0  0  0
   -1.2983   -0.8799   -1.4112 H   0  0  0  0  0  0  0  0  0  0  0  0
    0.8953   -1.0126    1.9871 H   0  0  0  0  0  0  0  0  0  0  0  0
    1.7779    1.1665    0.8522 H   0  0  0  0  0  0  0  0  0  0  0  0
    0.3081    1.3687    1.8092 H   0  0  0  0  0  0  0  0  0  0  0  0
    0.3867   -3.1667    1.2271 H   0  0  0  0  0  0  0  0  0  0  0  0
    0.7207   -3.3985   -0.4745 H   0  0  0  0  0  0  0  0  0  0  0  0
   -1.6427   -3.3586   -1.0509 H   0  0  0  0  0  0  0  0  0  0  0  0
   -2.1105   -2.7840    0.5614 H   0  0  0  0  0  0  0  0  0  0  0  0
   -1.0080   -4.9686    1.3527 H   0  0  0  0  0  0  0  0  0  0  0  0
   -1.9816   -6.6354    1.8817 H   0  0  0  0  0  0  0  0  0  0  0  0
   -3.5557   -8.2054   -1.1283 H   0  0  0  0  0  0  0  0  0  0  0  0
   -4.4190  -10.4910   -0.9022 H   0  0  0  0  0  0  0  0  0  0  0  0
   -4.2877  -11.6453    1.3118 H   0  0  0  0  0  0  0  0  0  0  0  0
   -3.2300  -10.4209    3.2158 H   0  0  0  0  0  0  0  0  0  0  0  0
  1  2  1  0  0  0  0
  1  6  1  0  0  0  0
  1 19  1  0  0  0  0
  1 20  1  0  0  0  0
  2  3  1  0  0  0  0
  2 21  1  0  0  0  0
  2 22  1  0  0  0  0
  3  4  1  0  0  0  0
  3 23  1  0  0  0  0
  3 24  1  0  0  0  0
  4  5  2  0  0  0  0
  4  7  1  0  0  0  0
  5  6  1  0  0  0  0
  5 25  1  0  0  0  0
  6 26  1  0  0  0  0
  6 27  1  0  0  0  0
  7  8  1  0  0  0  0
  7 28  1  0  0  0  0
  7 29  1  0  0  0  0
  8  9  1  0  0  0  0
  8 30  1  0  0  0  0
  8 31  1  0  0  0  0
  9 10  1  0  0  0  0
  9 32  1  0  0  0  0
 10 11  2  0  0  0  0
 10 12  1  0  0  0  0
 12 13  1  0  0  0  0
 12 33  1  0  0  0  0
 13 14  2  0  0  0  0
 13 18  1  0  0  0  0
 14 15  1  0  0  0  0
 14 34  1  0  0  0  0
 15 16  2  0  0  0  0
 15 35  1  0  0  0  0
 16 17  1  0  0  0  0
 16 36  1  0  0  0  0
 17 18  2  0  0  0  0
 17 37  1  0  0  0  0
M  END
