
 OpenBabel10072619503D

 95 94  0  0  0  0  0  0  0  0999 V2000
    0.7382    0.6277    0.4963 C   0  0  0  0  0  0  0  0  0  0  0  0
    2.2589    0.6365    0.4790 C   0  0  0  0  0  0  0  0  0  0  0  0
    2.8376   -0.3141    1.5266 C   0  0  0  0  0  0  0  0  0  0  0  0
    4.3677   -0.3040    1.5087 C   0  0  0  0  0  0  0  0  0  0  0  0
    4.9382   -1.2578    2.5598 C   0  0  0  0  0  0  0  0  0  0  0  0
    6.4682   -1.2558    2.5515 C   0  0  0  0  0  0  0  0  0  0  0  0
    7.0255   -2.2140    3.6058 C   0  0  0  0  0  0  0  0  0  0  0  0
    8.5557   -2.2242    3.6077 C   0  0  0  0  0  0  0  0  0  0  0  0
    9.0957   -3.1903    4.6640 C   0  0  0  0  0  0  0  0  0  0  0  0
   10.6255   -3.2202    4.6781 C   0  0  0  0  0  0  0  0  0  0  0  0
   11.1450   -4.1939    5.7379 C   0  0  0  0  0  0  0  0  0  0  0  0
   12.6743   -4.2404    5.7687 C   0  0  0  0  0  0  0  0  0  0  0  0
   13.1693   -5.2036    6.8495 C   0  0  0  0  0  0  0  0  0  0  0  0
   14.6972   -5.2632    6.9074 C   0  0  0  0  0  0  0  0  0  0  0  0
   15.1647   -6.1824    8.0386 C   0  0  0  0  0  0  0  0  0  0  0  0
   16.6904   -6.2777    8.0996 C   0  0  0  0  0  0  0  0  0  0  0  0
   17.1423   -7.1522    9.2737 C   0  0  0  0  0  0  0  0  0  0  0  0
   18.6607   -7.3165    9.2913 C   0  0  0  0  0  0  0  0  0  0  0  0
   19.1567   -8.3423   10.7142 S   0  0  0  0  0  0  0  0  0  0  0  0
   20.9203   -8.5629   10.2938 C   0  0  0  0  0  0  0  0  0  0  0  0
   21.6703   -9.4054   11.3322 C   0  0  0  0  0  0  0  0  0  0  0  0
   21.1306  -10.7748   11.4036 N   0  0  0  0  0  0  0  0  0  0  0  0
   21.8125  -11.8410   12.5020 S   0  0  0  0  0  0  0  0  0  0  0  0
   21.4435  -13.1593   12.0361 O   0  0  0  0  0  0  0  0  0  0  0  0
   23.1945  -11.4604   12.6873 O   0  0  0  0  0  0  0  0  0  0  0  0
   20.8894  -11.4824   13.9958 C   0  0  0  0  0  0  0  0  0  0  0  0
   21.3264  -12.4007   15.1328 C   0  0  0  0  0  0  0  0  0  0  0  0
   20.5908  -12.0788   16.4331 C   0  0  0  0  0  0  0  0  0  0  0  0
   21.0454  -13.0014   17.5658 C   0  0  0  0  0  0  0  0  0  0  0  0
   20.3603  -12.6482   18.8868 C   0  0  0  0  0  0  0  0  0  0  0  0
   20.8381  -13.5621   20.0159 C   0  0  0  0  0  0  0  0  0  0  0  0
   20.2092  -13.1771   21.3554 C   0  0  0  0  0  0  0  0  0  0  0  0
   20.7158  -14.0823   22.4778 C   0  0  0  0  0  0  0  0  0  0  0  0
   20.1127  -13.7029   23.8199 C   0  0  0  0  0  0  0  0  0  0  0  0
    0.3471    1.3146   -0.2608 H   0  0  0  0  0  0  0  0  0  0  0  0
    0.3544    0.9436    1.4716 H   0  0  0  0  0  0  0  0  0  0  0  0
    0.3484   -0.3723    0.2808 H   0  0  0  0  0  0  0  0  0  0  0  0
    2.6142    1.6566    0.6654 H   0  0  0  0  0  0  0  0  0  0  0  0
    2.6083    0.3478   -0.5190 H   0  0  0  0  0  0  0  0  0  0  0  0
    2.4757   -1.3323    1.3382 H   0  0  0  0  0  0  0  0  0  0  0  0
    2.4809   -0.0241    2.5225 H   0  0  0  0  0  0  0  0  0  0  0  0
    4.7318    0.7129    1.6989 H   0  0  0  0  0  0  0  0  0  0  0  0
    4.7266   -0.5957    0.5142 H   0  0  0  0  0  0  0  0  0  0  0  0
    4.5723   -2.2742    2.3690 H   0  0  0  0  0  0  0  0  0  0  0  0
    4.5770   -0.9662    3.5536 H   0  0  0  0  0  0  0  0  0  0  0  0
    6.8364   -0.2410    2.7452 H   0  0  0  0  0  0  0  0  0  0  0  0
    6.8315   -1.5490    1.5591 H   0  0  0  0  0  0  0  0  0  0  0  0
    6.6529   -3.2274    3.4124 H   0  0  0  0  0  0  0  0  0  0  0  0
    6.6600   -1.9200    4.5974 H   0  0  0  0  0  0  0  0  0  0  0  0
    8.9305   -1.2128    3.8061 H   0  0  0  0  0  0  0  0  0  0  0  0
    8.9230   -2.5178    2.6169 H   0  0  0  0  0  0  0  0  0  0  0  0
    8.7114   -4.1985    4.4664 H   0  0  0  0  0  0  0  0  0  0  0  0
    8.7258   -2.8930    5.6530 H   0  0  0  0  0  0  0  0  0  0  0  0
   11.0110   -2.2138    4.8814 H   0  0  0  0  0  0  0  0  0  0  0  0
   10.9971   -3.5174    3.6900 H   0  0  0  0  0  0  0  0  0  0  0  0
   10.7533   -5.1983    5.5354 H   0  0  0  0  0  0  0  0  0  0  0  0
   10.7681   -3.8944    6.7236 H   0  0  0  0  0  0  0  0  0  0  0  0
   13.0690   -3.2357    5.9615 H   0  0  0  0  0  0  0  0  0  0  0  0
   13.0540   -4.5555    4.7896 H   0  0  0  0  0  0  0  0  0  0  0  0
   12.7726   -6.2075    6.6541 H   0  0  0  0  0  0  0  0  0  0  0  0
   12.7785   -4.8873    7.8244 H   0  0  0  0  0  0  0  0  0  0  0  0
   15.1011   -4.2555    7.0640 H   0  0  0  0  0  0  0  0  0  0  0  0
   15.0882   -5.6255    5.9488 H   0  0  0  0  0  0  0  0  0  0  0  0
   14.7429   -7.1849    7.8948 H   0  0  0  0  0  0  0  0  0  0  0  0
   14.7819   -5.8065    8.9954 H   0  0  0  0  0  0  0  0  0  0  0  0
   17.1207   -5.2743    8.2041 H   0  0  0  0  0  0  0  0  0  0  0  0
   17.0679   -6.6956    7.1586 H   0  0  0  0  0  0  0  0  0  0  0  0
   16.6617   -8.1359    9.1951 H   0  0  0  0  0  0  0  0  0  0  0  0
   16.8011   -6.6944   10.2110 H   0  0  0  0  0  0  0  0  0  0  0  0
   19.1506   -6.3406    9.3723 H   0  0  0  0  0  0  0  0  0  0  0  0
   18.9948   -7.7995    8.3671 H   0  0  0  0  0  0  0  0  0  0  0  0
   21.3872   -7.5752   10.2245 H   0  0  0  0  0  0  0  0  0  0  0  0
   20.9832   -9.0440    9.3115 H   0  0  0  0  0  0  0  0  0  0  0  0
   21.6223   -8.9286   12.3176 H   0  0  0  0  0  0  0  0  0  0  0  0
   22.7203   -9.4567   11.0240 H   0  0  0  0  0  0  0  0  0  0  0  0
   20.8989  -11.2360   10.5234 H   0  0  0  0  0  0  0  0  0  0  0  0
   19.8285  -11.6232   13.7680 H   0  0  0  0  0  0  0  0  0  0  0  0
   21.0742  -10.4342   14.2492 H   0  0  0  0  0  0  0  0  0  0  0  0
   22.4076  -12.3022   15.2898 H   0  0  0  0  0  0  0  0  0  0  0  0
   21.1453  -13.4460   14.8536 H   0  0  0  0  0  0  0  0  0  0  0  0
   19.5099  -12.1852   16.2814 H   0  0  0  0  0  0  0  0  0  0  0  0
   20.7789  -11.0344   16.7106 H   0  0  0  0  0  0  0  0  0  0  0  0
   22.1332  -12.9246   17.6865 H   0  0  0  0  0  0  0  0  0  0  0  0
   20.8235  -14.0428   17.3021 H   0  0  0  0  0  0  0  0  0  0  0  0
   19.2729  -12.7374   18.7750 H   0  0  0  0  0  0  0  0  0  0  0  0
   20.5758  -11.6035   19.1417 H   0  0  0  0  0  0  0  0  0  0  0  0
   21.9305  -13.5051   20.0961 H   0  0  0  0  0  0  0  0  0  0  0  0
   20.5859  -14.6026   19.7765 H   0  0  0  0  0  0  0  0  0  0  0  0
   19.1172  -13.2499   21.2848 H   0  0  0  0  0  0  0  0  0  0  0  0
   20.4494  -12.1325   21.5889 H   0  0  0  0  0  0  0  0  0  0  0  0
   21.8080  -14.0152   22.5440 H   0  0  0  0  0  0  0  0  0  0  0  0
   20.4684  -15.1264   22.2542 H   0  0  0  0  0  0  0  0  0  0  0  0
   20.3692  -12.6731   24.0869 H   0  0  0  0  0  0  0  0  0  0  0  0
   20.4940  -14.3626   24.6056 H   0  0  0  0  0  0  0  0  0  0  0  0
   19.0221  -13.7924   23.8013 H   0  0  0  0  0  0  0  0  0  0  0  0
  1  2  1  0  0  0  0
  1 35  1  0  0  0  0
  1 36  1  0  0  0  0
  1 37  1  0  0  0  0
  2  3  1  0  0  0  0
  2 38  1  0  0  0  0
  2 39  1  0  0  0  0
  3  4  1  0  0  0  0
  3 40  1  0  0  0  0
  3 41  1  0  0  0  0
  4  5  1  0  0  0  0
  4 42  1  0  0  0  0
  4 43  1  0  0  0  0
  5  6  1  0  0  0  0
  5 44  1  0  0  0  0
  5 45  1  0  0  0  0
  6  7  1  0  0  0  0
  6 46  1  0  0  0  0
  6 47  1  0  0  0  0
  7  8  1  0  0  0  0
  7 48  1  0  0  0  0
  7 49  1  0  0  0  0
  8  9  1  0  0  0  0
  8 50  1  0  0  0  0
  8 51  1  0  0  0  0
  9 10  1  0  0  0  0
  9 52  1  0  0  0  0
  9 53  1  0  0  0  0
 10 11  1  0  0  0  0
 10 54  1  0  0  0  0
 10 55  1  0  0  0  0
 11 12  1  0  0  0  0
 11 56  1  0  0  0  0
 11 57  1  0  0  0  0
 12 13  1  0  0  0  0
 12 58  1  0  0  0  0
 12 59  1  0  0  0  0
 13 14  1  0  0  0  0
 13 60  1  0  0  0  0
 13 61  1  0  0  0  0
 14 15  1  0  0  0  0
 14 62  1  0  0  0  0
 14 63  1  0  0  0  0
 15 16  1  0  0  0  0
 15 64  1  0  0  0  0
 15 65  1  0  0  0  0
 16 17  1  0  0  0  0
 16 66  1  0  0  0  0
 16 67  1  0  0  0  0
 17 18  1  0  0  0  0
 17 68  1  0  0  0  0
 17 69  1  0  0  0  0
 18 19  1  0  0  0  0
 18 70  1  0  0  0  0
 18 71  1  0  0  0  0
 19 20  1  0  0  0  0
 20 21  1  0  0  0  0
 20 72  1  0  0  0  0
 20 73  1  0  0  0  0
 21 22  1  0  0  0  0
 21 74  1  0  0  0  0
 21 75  1  0  0  0  0
 22 23  1  0  0  0  0
 22 76  1  0  0  0  0
 23 24  2  0  0  0  0
 23 25  2  0  0  0  0
 23 26  1  0  0  0  0
 26 27  1  0  0  0  0
 26 77  1  0  0  0  0
 26 78  1  0  0  0  0
 27 28  1  0  0  0  0
 27 79  1  0  0  0  0
 27 80  1  0  0  0  0
 28 29  1  0  0  0  0
 28 81  1  0  0  0  0
 28 82  1  0  0  0  0
 29 30  1  0  0  0  0
 29 83  1  0  0  0  0
 29 84  1  0  0  0  0
 30 31  1  0  0  0  0
 30 85  1  0  0  0  0
 30 86  1  0  0  0  0
 31 32  1  0  0  0  0
 31 87  1  0  0  0  0
 31 88  1  0  0  0  0
 32 33  1  0  0  0  0
 32 89  1  0  0  0  0
 32 90  1  0  0  0  0
 33 34  1  0  0  0  0
 33 91  1  0  0  0  0
 33 92  1  0  0  0  0
 34 93  1  0  0  0  0
 34 94  1  0  0  0  0
 34 95  1  0  0  0  0
M  END
