
 OpenBabel10072616343D

 70 73  0  0  0  0  0  0  0  0999 V2000
    2.5567   -0.0250   -0.9747 C   0  0  0  0  0  0  0  0  0  0  0  0
    1.1310    0.0076   -0.5051 C   0  0  0  0  0  0  0  0  0  0  0  0
    0.3753    1.1829   -0.3511 C   0  0  0  0  0  0  0  0  0  0  0  0
   -0.9791    1.0959    0.0152 C   0  0  0  0  0  0  0  0  0  0  0  0
   -1.5894   -0.1349    0.2587 C   0  0  0  0  0  0  0  0  0  0  0  0
   -0.8404   -1.2978    0.1145 C   0  0  0  0  0  0  0  0  0  0  0  0
    0.5106   -1.2310   -0.2412 C   0  0  0  0  0  0  0  0  0  0  0  0
   -1.5940   -2.8877    0.3437 S   0  0  0  0  0  0  0  0  0  0  0  0
   -0.7300   -3.6386    1.2272 O   0  0  0  0  0  0  0  0  0  0  0  0
   -3.0027   -2.7169    0.6214 O   0  0  0  0  0  0  0  0  0  0  0  0
   -1.4284   -3.5928   -1.1791 N   0  0  0  0  0  0  0  0  0  0  0  0
   -2.4978   -3.4714   -2.1934 C   0  0  0  0  0  0  0  0  0  0  0  0
   -2.0485   -4.2609   -3.4353 C   0  0  0  0  0  0  0  0  0  0  0  0
   -3.0583   -4.1584   -4.5752 C   0  0  0  0  0  0  0  0  0  0  0  0
   -3.3538   -2.7066   -4.9353 C   0  0  0  0  0  0  0  0  0  0  0  0
   -3.7943   -1.9096   -3.7135 C   0  0  0  0  0  0  0  0  0  0  0  0
   -2.7866   -2.0152   -2.5699 C   0  0  0  0  0  0  0  0  0  0  0  0
    0.7731    2.4671   -0.6067 O   0  0  0  0  0  0  0  0  0  0  0  0
    2.0850    2.8499   -0.2192 C   0  0  0  0  0  0  0  0  0  0  0  0
    2.1708    4.3770   -0.1782 C   0  0  0  0  0  0  0  0  0  0  0  0
    2.7102    4.9780   -1.1121 O   0  0  0  0  0  0  0  0  0  0  0  0
    1.6700    5.0454    0.9396 N   0  0  0  0  0  0  0  0  0  0  0  0
    1.6394    6.5067    0.8912 C   0  0  0  0  0  0  0  0  0  0  0  0
    1.8630    7.1218    2.2680 C   0  0  0  0  0  0  0  0  0  0  0  0
    0.8980    6.5618    3.3270 C   0  0  0  0  0  0  0  0  0  0  0  0
    0.9784    5.0259    3.3192 C   0  0  0  0  0  0  0  0  0  0  0  0
    0.7913    4.4220    1.9278 C   0  0  0  0  0  0  0  0  0  0  0  0
   -0.5614    7.0358    3.1416 C   0  0  0  0  0  0  0  0  0  0  0  0
   -0.7386    8.5251    3.3205 C   0  0  0  0  0  0  0  0  0  0  0  0
   -1.0840    9.3363    2.2314 C   0  0  0  0  0  0  0  0  0  0  0  0
   -1.2280   10.7152    2.3923 C   0  0  0  0  0  0  0  0  0  0  0  0
   -1.0289   11.2949    3.6439 C   0  0  0  0  0  0  0  0  0  0  0  0
   -0.6921   10.4981    4.7359 C   0  0  0  0  0  0  0  0  0  0  0  0
   -0.5512    9.1194    4.5763 C   0  0  0  0  0  0  0  0  0  0  0  0
    2.6782    0.5806   -1.8775 H   0  0  0  0  0  0  0  0  0  0  0  0
    2.8710   -1.0395   -1.2433 H   0  0  0  0  0  0  0  0  0  0  0  0
    3.2273    0.3234   -0.1839 H   0  0  0  0  0  0  0  0  0  0  0  0
   -1.5717    2.0056    0.0982 H   0  0  0  0  0  0  0  0  0  0  0  0
   -2.6410   -0.1763    0.5322 H   0  0  0  0  0  0  0  0  0  0  0  0
    1.0757   -2.1570   -0.3450 H   0  0  0  0  0  0  0  0  0  0  0  0
   -0.9958   -4.5130   -1.0863 H   0  0  0  0  0  0  0  0  0  0  0  0
   -3.4051   -3.9463   -1.8005 H   0  0  0  0  0  0  0  0  0  0  0  0
   -1.9016   -5.3169   -3.1752 H   0  0  0  0  0  0  0  0  0  0  0  0
   -1.0738   -3.8900   -3.7801 H   0  0  0  0  0  0  0  0  0  0  0  0
   -3.9891   -4.6583   -4.2812 H   0  0  0  0  0  0  0  0  0  0  0  0
   -2.6766   -4.6869   -5.4561 H   0  0  0  0  0  0  0  0  0  0  0  0
   -4.1346   -2.6665   -5.7034 H   0  0  0  0  0  0  0  0  0  0  0  0
   -2.4574   -2.2462   -5.3682 H   0  0  0  0  0  0  0  0  0  0  0  0
   -4.7696   -2.2771   -3.3710 H   0  0  0  0  0  0  0  0  0  0  0  0
   -3.9300   -0.8573   -3.9882 H   0  0  0  0  0  0  0  0  0  0  0  0
   -3.1957   -1.4695   -1.7146 H   0  0  0  0  0  0  0  0  0  0  0  0
   -1.8565   -1.5085   -2.8571 H   0  0  0  0  0  0  0  0  0  0  0  0
    2.8084    2.5356   -0.9772 H   0  0  0  0  0  0  0  0  0  0  0  0
    2.3839    2.4296    0.7467 H   0  0  0  0  0  0  0  0  0  0  0  0
    0.6662    6.7992    0.4799 H   0  0  0  0  0  0  0  0  0  0  0  0
    2.4017    6.8890    0.2038 H   0  0  0  0  0  0  0  0  0  0  0  0
    1.7917    8.2128    2.2015 H   0  0  0  0  0  0  0  0  0  0  0  0
    2.8917    6.9012    2.5841 H   0  0  0  0  0  0  0  0  0  0  0  0
    1.2488    6.9035    4.3099 H   0  0  0  0  0  0  0  0  0  0  0  0
    0.2381    4.6006    4.0066 H   0  0  0  0  0  0  0  0  0  0  0  0
    1.9641    4.7278    3.7002 H   0  0  0  0  0  0  0  0  0  0  0  0
   -0.2382    4.5558    1.5775 H   0  0  0  0  0  0  0  0  0  0  0  0
    0.9657    3.3465    1.9906 H   0  0  0  0  0  0  0  0  0  0  0  0
   -1.2052    6.5363    3.8787 H   0  0  0  0  0  0  0  0  0  0  0  0
   -0.9481    6.7330    2.1611 H   0  0  0  0  0  0  0  0  0  0  0  0
   -1.2351    8.9026    1.2457 H   0  0  0  0  0  0  0  0  0  0  0  0
   -1.4885   11.3371    1.5397 H   0  0  0  0  0  0  0  0  0  0  0  0
   -1.1314   12.3692    3.7676 H   0  0  0  0  0  0  0  0  0  0  0  0
   -0.5314   10.9504    5.7114 H   0  0  0  0  0  0  0  0  0  0  0  0
   -0.2872    8.5115    5.4382 H   0  0  0  0  0  0  0  0  0  0  0  0
  1  2  1  0  0  0  0
  1 35  1  0  0  0  0
  1 36  1  0  0  0  0
  1 37  1  0  0  0  0
  2  3  2  0  0  0  0
  2  7  1  0  0  0  0
  3  4  1  0  0  0  0
  3 18  1  0  0  0  0
  4  5  2  0  0  0  0
  4 38  1  0  0  0  0
  5  6  1  0  0  0  0
  5 39  1  0  0  0  0
  6  7  2  0  0  0  0
  6  8  1  0  0  0  0
  7 40  1  0  0  0  0
  8  9  2  0  0  0  0
  8 10  2  0  0  0  0
  8 11  1  0  0  0  0
 11 12  1  0  0  0  0
 11 41  1  0  0  0  0
 12 13  1  0  0  0  0
 12 17  1  0  0  0  0
 12 42  1  0  0  0  0
 13 14  1  0  0  0  0
 13 43  1  0  0  0  0
 13 44  1  0  0  0  0
 14 15  1  0  0  0  0
 14 45  1  0  0  0  0
 14 46  1  0  0  0  0
 15 16  1  0  0  0  0
 15 47  1  0  0  0  0
 15 48  1  0  0  0  0
 16 17  1  0  0  0  0
 16 49  1  0  0  0  0
 16 50  1  0  0  0  0
 17 51  1  0  0  0  0
 17 52  1  0  0  0  0
 18 19  1  0  0  0  0
 19 20  1  0  0  0  0
 19 53  1  0  0  0  0
 19 54  1  0  0  0  0
 20 21  2  0  0  0  0
 20 22  1  0  0  0  0
 22 23  1  0  0  0  0
 22 27  1  0  0  0  0
 23 24  1  0  0  0  0
 23 55  1  0  0  0  0
 23 56  1  0  0  0  0
 24 25  1  0  0  0  0
 24 57  1  0  0  0  0
 24 58  1  0  0  0  0
 25 26  1  0  0  0  0
 25 28  1  0  0  0  0
 25 59  1  0  0  0  0
 26 27  1  0  0  0  0
 26 60  1  0  0  0  0
 26 61  1  0  0  0  0
 27 62  1  0  0  0  0
 27 63  1  0  0  0  0
 28 29  1  0  0  0  0
 28 64  1  0  0  0  0
 28 65  1  0  0  0  0
 29 30  2  0  0  0  0
 29 34  1  0  0  0  0
 30 31  1  0  0  0  0
 30 66  1  0  0  0  0
 31 32  2  0  0  0  0
 31 67  1  0  0  0  0
 32 33  1  0  0  0  0
 32 68  1  0  0  0  0
 33 34  2  0  0  0  0
 33 69  1  0  0  0  0
 34 70  1  0  0  0  0
M  END
