
 OpenBabel10072619543D

 44 46  0  0  0  0  0  0  0  0999 V2000
    2.2663   -0.3432    0.6386 C   0  0  0  0  0  0  0  0  0  0  0  0
    0.8096   -0.1574    0.3087 C   0  0  0  0  0  0  0  0  0  0  0  0
    0.2526    1.1127    0.0331 C   0  0  0  0  0  0  0  0  0  0  0  0
   -1.1245    1.1945   -0.2542 C   0  0  0  0  0  0  0  0  0  0  0  0
   -1.9323    0.0568   -0.2726 C   0  0  0  0  0  0  0  0  0  0  0  0
   -1.3772   -1.1861    0.0011 C   0  0  0  0  0  0  0  0  0  0  0  0
   -0.0173   -1.2968    0.2805 C   0  0  0  0  0  0  0  0  0  0  0  0
   -2.1973   -2.3401   -0.0744 N   0  0  0  0  0  0  0  0  0  0  0  0
   -2.1025   -3.3255   -1.4392 S   0  0  0  0  0  0  0  0  0  0  0  0
   -3.3528   -4.0482   -1.5417 O   0  0  0  0  0  0  0  0  0  0  0  0
   -1.6473   -2.5186   -2.5565 O   0  0  0  0  0  0  0  0  0  0  0  0
   -0.8264   -4.4855   -1.0486 C   0  0  0  0  0  0  0  0  0  0  0  0
    0.2821   -4.5680   -1.9084 C   0  0  0  0  0  0  0  0  0  0  0  0
    1.2913   -5.4830   -1.6464 C   0  0  0  0  0  0  0  0  0  0  0  0
    1.1878   -6.3085   -0.5321 C   0  0  0  0  0  0  0  0  0  0  0  0
    0.0782   -6.2194    0.3280 C   0  0  0  0  0  0  0  0  0  0  0  0
   -0.9624   -5.2923    0.0838 C   0  0  0  0  0  0  0  0  0  0  0  0
   -2.0176   -5.2088    0.9280 N   0  0  0  0  0  0  0  0  0  0  0  0
   -2.0791   -6.0329    1.9961 C   0  0  0  0  0  0  0  0  0  0  0  0
   -1.1118   -6.9665    2.2966 C   0  0  0  0  0  0  0  0  0  0  0  0
   -0.0163   -7.0558    1.4496 C   0  0  0  0  0  0  0  0  0  0  0  0
    1.0943    2.3850    0.0233 C   0  0  0  0  0  0  0  0  0  0  0  0
    1.1133    3.0344   -1.3646 C   0  0  0  0  0  0  0  0  0  0  0  0
    0.6227    3.3852    1.0837 C   0  0  0  0  0  0  0  0  0  0  0  0
    2.5239    0.2182    1.5424 H   0  0  0  0  0  0  0  0  0  0  0  0
    2.8935   -0.0127   -0.1953 H   0  0  0  0  0  0  0  0  0  0  0  0
    2.5065   -1.3947    0.8301 H   0  0  0  0  0  0  0  0  0  0  0  0
   -1.5832    2.1544   -0.4821 H   0  0  0  0  0  0  0  0  0  0  0  0
   -2.9849    0.1522   -0.5212 H   0  0  0  0  0  0  0  0  0  0  0  0
    0.4054   -2.2747    0.4955 H   0  0  0  0  0  0  0  0  0  0  0  0
   -3.1457   -2.3013    0.2931 H   0  0  0  0  0  0  0  0  0  0  0  0
    0.3575   -3.9249   -2.7834 H   0  0  0  0  0  0  0  0  0  0  0  0
    2.1497   -5.5583   -2.3094 H   0  0  0  0  0  0  0  0  0  0  0  0
    1.9809   -7.0280   -0.3367 H   0  0  0  0  0  0  0  0  0  0  0  0
   -2.9609   -5.9160    2.6199 H   0  0  0  0  0  0  0  0  0  0  0  0
   -1.2069   -7.6076    3.1657 H   0  0  0  0  0  0  0  0  0  0  0  0
    0.7619   -7.7838    1.6672 H   0  0  0  0  0  0  0  0  0  0  0  0
    2.1340    2.1436    0.2668 H   0  0  0  0  0  0  0  0  0  0  0  0
    0.1232    3.3934   -1.6656 H   0  0  0  0  0  0  0  0  0  0  0  0
    1.4564    2.3242   -2.1251 H   0  0  0  0  0  0  0  0  0  0  0  0
    1.7929    3.8934   -1.3777 H   0  0  0  0  0  0  0  0  0  0  0  0
   -0.3822    3.7668    0.8729 H   0  0  0  0  0  0  0  0  0  0  0  0
    1.3004    4.2451    1.1258 H   0  0  0  0  0  0  0  0  0  0  0  0
    0.6048    2.9233    2.0771 H   0  0  0  0  0  0  0  0  0  0  0  0
  1  2  1  0  0  0  0
  1 25  1  0  0  0  0
  1 26  1  0  0  0  0
  1 27  1  0  0  0  0
  2  3  2  0  0  0  0
  2  7  1  0  0  0  0
  3  4  1  0  0  0  0
  3 22  1  0  0  0  0
  4  5  2  0  0  0  0
  4 28  1  0  0  0  0
  5  6  1  0  0  0  0
  5 29  1  0  0  0  0
  6  7  2  0  0  0  0
  6  8  1  0  0  0  0
  7 30  1  0  0  0  0
  8  9  1  0  0  0  0
  8 31  1  0  0  0  0
  9 10  2  0  0  0  0
  9 11  2  0  0  0  0
  9 12  1  0  0  0  0
 12 13  2  0  0  0  0
 12 17  1  0  0  0  0
 13 14  1  0  0  0  0
 13 32  1  0  0  0  0
 14 15  2  0  0  0  0
 14 33  1  0  0  0  0
 15 16  1  0  0  0  0
 15 34  1  0  0  0  0
 16 17  2  0  0  0  0
 16 21  1  0  0  0  0
 17 18  1  0  0  0  0
 18 19  2  0  0  0  0
 19 20  1  0  0  0  0
 19 35  1  0  0  0  0
 20 21  2  0  0  0  0
 20 36  1  0  0  0  0
 21 37  1  0  0  0  0
 22 23  1  0  0  0  0
 22 24  1  0  0  0  0
 22 38  1  0  0  0  0
 23 39  1  0  0  0  0
 23 40  1  0  0  0  0
 23 41  1  0  0  0  0
 24 42  1  0  0  0  0
 24 43  1  0  0  0  0
 24 44  1  0  0  0  0
M  END
