
 OpenBabel10072619523D

 55 58  0  0  1  0  0  0  0  0999 V2000
    2.7254   -2.1642   -2.7277 C   0  0  0  0  0  0  0  0  0  0  0  0
    2.3453   -2.3132   -1.2585 C   0  0  0  0  0  0  0  0  0  0  0  0
    2.8938   -1.2092   -0.2998 C   0  0  0  0  0  0  0  0  0  0  0  0
    2.2060    0.1311   -0.6519 C   0  0  0  0  0  0  0  0  0  0  0  0
    2.4519   -1.5896    1.1325 C   0  0  0  0  0  0  0  0  0  0  0  0
    4.4595   -1.0586   -0.4057 C   0  0  3  0  0  0  0  0  0  0  0  0
    5.2406   -2.3740   -0.0746 C   0  0  0  0  0  0  0  0  0  0  0  0
    6.7536   -2.2778   -0.3771 C   0  0  0  0  0  0  0  0  0  0  0  0
    7.2533   -0.9619    0.0654 C   0  0  0  0  0  0  0  0  0  0  0  0
    6.5146    0.1440    0.4133 C   0  0  0  0  0  0  0  0  0  0  0  0
    5.0263    0.1369    0.4294 C   0  0  0  0  0  0  0  0  0  0  0  0
    7.4556    1.1617    0.7046 C   0  0  0  0  0  0  0  0  0  0  0  0
    8.7104    0.5916    0.4949 C   0  0  0  0  0  0  0  0  0  0  0  0
    8.5833   -0.7123    0.1073 O   0  0  0  0  0  0  0  0  0  0  0  0
    9.9129    1.2784    0.6514 C   0  0  0  0  0  0  0  0  0  0  0  0
    9.8223    2.6235    1.0321 C   0  0  0  0  0  0  0  0  0  0  0  0
    8.5803    3.2258    1.2475 C   0  0  0  0  0  0  0  0  0  0  0  0
    7.3870    2.5073    1.1003 C   0  0  0  0  0  0  0  0  0  0  0  0
    8.4917    4.6185    1.5306 N   0  0  0  0  0  0  0  0  0  0  0  0
    8.5093    5.6796    0.2051 S   0  0  0  0  0  0  0  0  0  0  0  0
    8.4718    7.0176    0.7566 O   0  0  0  0  0  0  0  0  0  0  0  0
    9.5630    5.2813   -0.7022 O   0  0  0  0  0  0  0  0  0  0  0  0
    6.9383    5.3729   -0.5668 C   0  0  0  0  0  0  0  0  0  0  0  0
    5.7773    5.9217   -0.0135 C   0  0  0  0  0  0  0  0  0  0  0  0
    4.5410    5.6440   -0.6007 C   0  0  0  0  0  0  0  0  0  0  0  0
    4.4784    4.8314   -1.7350 C   0  0  0  0  0  0  0  0  0  0  0  0
    5.6407    4.3067   -2.3017 C   0  0  0  0  0  0  0  0  0  0  0  0
    6.8792    4.5825   -1.7203 C   0  0  0  0  0  0  0  0  0  0  0  0
    2.8001    4.4330   -2.5088 Br  0  0  0  0  0  0  0  0  0  0  0  0
    2.2409   -2.9487   -3.3180 H   0  0  0  0  0  0  0  0  0  0  0  0
    3.8033   -2.2673   -2.8800 H   0  0  0  0  0  0  0  0  0  0  0  0
    2.4040   -1.2013   -3.1340 H   0  0  0  0  0  0  0  0  0  0  0  0
    2.6676   -3.3041   -0.9169 H   0  0  0  0  0  0  0  0  0  0  0  0
    1.2487   -2.3287   -1.1968 H   0  0  0  0  0  0  0  0  0  0  0  0
    1.1189    0.0112   -0.7273 H   0  0  0  0  0  0  0  0  0  0  0  0
    2.5652    0.5288   -1.6066 H   0  0  0  0  0  0  0  0  0  0  0  0
    2.3865    0.8922    0.1150 H   0  0  0  0  0  0  0  0  0  0  0  0
    1.3605   -1.6770    1.1934 H   0  0  0  0  0  0  0  0  0  0  0  0
    2.7498   -0.8369    1.8689 H   0  0  0  0  0  0  0  0  0  0  0  0
    2.8689   -2.5523    1.4450 H   0  0  0  0  0  0  0  0  0  0  0  0
    4.6924   -0.8181   -1.4527 H   0  0  0  0  0  0  0  0  0  0  0  0
    4.8433   -3.2236   -0.6381 H   0  0  0  0  0  0  0  0  0  0  0  0
    5.1137   -2.6081    0.9896 H   0  0  0  0  0  0  0  0  0  0  0  0
    6.9186   -2.3810   -1.4554 H   0  0  0  0  0  0  0  0  0  0  0  0
    7.2882   -3.0919    0.1235 H   0  0  0  0  0  0  0  0  0  0  0  0
    4.6645    1.0861    0.0188 H   0  0  0  0  0  0  0  0  0  0  0  0
    4.6980    0.0767    1.4719 H   0  0  0  0  0  0  0  0  0  0  0  0
   10.8654    0.7979    0.4614 H   0  0  0  0  0  0  0  0  0  0  0  0
   10.7382    3.2021    1.1289 H   0  0  0  0  0  0  0  0  0  0  0  0
    6.4255    2.9795    1.2701 H   0  0  0  0  0  0  0  0  0  0  0  0
    9.0934    4.9766    2.2722 H   0  0  0  0  0  0  0  0  0  0  0  0
    5.8281    6.5527    0.8715 H   0  0  0  0  0  0  0  0  0  0  0  0
    3.6355    6.0625   -0.1679 H   0  0  0  0  0  0  0  0  0  0  0  0
    5.5946    3.6822   -3.1906 H   0  0  0  0  0  0  0  0  0  0  0  0
    7.7844    4.1657   -2.1578 H   0  0  0  0  0  0  0  0  0  0  0  0
  1  2  1  0  0  0  0
  1 30  1  0  0  0  0
  1 31  1  0  0  0  0
  1 32  1  0  0  0  0
  2  3  1  0  0  0  0
  2 33  1  0  0  0  0
  2 34  1  0  0  0  0
  3  4  1  0  0  0  0
  3  5  1  0  0  0  0
  3  6  1  0  0  0  0
  4 35  1  0  0  0  0
  4 36  1  0  0  0  0
  4 37  1  0  0  0  0
  5 38  1  0  0  0  0
  5 39  1  0  0  0  0
  5 40  1  0  0  0  0
  6  7  1  0  0  0  0
  6 11  1  0  0  0  0
  6 41  1  0  0  0  0
  7  8  1  0  0  0  0
  7 42  1  0  0  0  0
  7 43  1  0  0  0  0
  8  9  1  0  0  0  0
  8 44  1  0  0  0  0
  8 45  1  0  0  0  0
  9 10  2  0  0  0  0
  9 14  1  0  0  0  0
 10 11  1  0  0  0  0
 10 12  1  0  0  0  0
 11 46  1  0  0  0  0
 11 47  1  0  0  0  0
 12 13  2  0  0  0  0
 12 18  1  0  0  0  0
 13 14  1  0  0  0  0
 13 15  1  0  0  0  0
 15 16  2  0  0  0  0
 15 48  1  0  0  0  0
 16 17  1  0  0  0  0
 16 49  1  0  0  0  0
 17 18  2  0  0  0  0
 17 19  1  0  0  0  0
 18 50  1  0  0  0  0
 19 20  1  0  0  0  0
 19 51  1  0  0  0  0
 20 21  2  0  0  0  0
 20 22  2  0  0  0  0
 20 23  1  0  0  0  0
 23 24  2  0  0  0  0
 23 28  1  0  0  0  0
 24 25  1  0  0  0  0
 24 52  1  0  0  0  0
 25 26  2  0  0  0  0
 25 53  1  0  0  0  0
 26 27  1  0  0  0  0
 26 29  1  0  0  0  0
 27 28  2  0  0  0  0
 27 54  1  0  0  0  0
 28 55  1  0  0  0  0
M  END
