
 OpenBabel10072620093D

 36 36  0  0  0  0  0  0  0  0999 V2000
    2.0622    0.4061    1.5007 C   0  0  0  0  0  0  0  0  0  0  0  0
    1.9275   -1.0555    1.1002 C   0  0  0  0  0  0  0  0  0  0  0  0
    2.9422   -1.4685    0.0325 C   0  0  0  0  0  0  0  0  0  0  0  0
    4.3262   -1.3585    0.5001 N   0  0  0  0  0  0  0  0  0  0  0  0
    5.1726   -0.3794   -0.1943 C   0  0  0  0  0  0  0  0  0  0  0  0
    5.6939   -0.9409   -1.5185 C   0  0  0  0  0  0  0  0  0  0  0  0
    6.5919    0.0511   -2.2386 C   0  0  0  0  0  0  0  0  0  0  0  0
    4.8143   -2.4048    1.2875 C   0  0  0  0  0  0  0  0  0  0  0  0
    4.1423   -3.4030    1.5332 O   0  0  0  0  0  0  0  0  0  0  0  0
    6.0799   -2.1982    1.7855 N   0  0  0  0  0  0  0  0  0  0  0  0
    6.8962   -3.1484    2.4437 C   0  0  0  0  0  0  0  0  0  0  0  0
    6.7223   -4.5280    2.2886 C   0  0  0  0  0  0  0  0  0  0  0  0
    7.5835   -5.4303    2.9260 C   0  0  0  0  0  0  0  0  0  0  0  0
    8.6281   -4.9555    3.7280 C   0  0  0  0  0  0  0  0  0  0  0  0
    8.8147   -3.5811    3.8871 C   0  0  0  0  0  0  0  0  0  0  0  0
    7.9564   -2.6870    3.2448 C   0  0  0  0  0  0  0  0  0  0  0  0
    8.2230   -0.9914    3.4699 Cl  0  0  0  0  0  0  0  0  0  0  0  0
    9.7292   -6.0120    4.5383 Cl  0  0  0  0  0  0  0  0  0  0  0  0
    7.3165   -7.1189    2.6673 Cl  0  0  0  0  0  0  0  0  0  0  0  0
    1.2650    0.6818    2.1974 H   0  0  0  0  0  0  0  0  0  0  0  0
    1.9917    1.0617    0.6271 H   0  0  0  0  0  0  0  0  0  0  0  0
    3.0189    0.5951    1.9971 H   0  0  0  0  0  0  0  0  0  0  0  0
    0.9175   -1.2213    0.7076 H   0  0  0  0  0  0  0  0  0  0  0  0
    2.0334   -1.6837    1.9919 H   0  0  0  0  0  0  0  0  0  0  0  0
    2.8081   -0.8539   -0.8652 H   0  0  0  0  0  0  0  0  0  0  0  0
    2.7529   -2.5052   -0.2687 H   0  0  0  0  0  0  0  0  0  0  0  0
    6.0160   -0.0846    0.4351 H   0  0  0  0  0  0  0  0  0  0  0  0
    4.5816    0.5290   -0.3619 H   0  0  0  0  0  0  0  0  0  0  0  0
    4.8527   -1.2039   -2.1714 H   0  0  0  0  0  0  0  0  0  0  0  0
    6.2519   -1.8668   -1.3361 H   0  0  0  0  0  0  0  0  0  0  0  0
    6.0602    0.9859   -2.4437 H   0  0  0  0  0  0  0  0  0  0  0  0
    6.9243   -0.3678   -3.1941 H   0  0  0  0  0  0  0  0  0  0  0  0
    7.4795    0.2807   -1.6400 H   0  0  0  0  0  0  0  0  0  0  0  0
    6.3147   -1.2329    1.9741 H   0  0  0  0  0  0  0  0  0  0  0  0
    5.9302   -4.9213    1.6556 H   0  0  0  0  0  0  0  0  0  0  0  0
    9.6271   -3.2079    4.5062 H   0  0  0  0  0  0  0  0  0  0  0  0
  1  2  1  0  0  0  0
  1 20  1  0  0  0  0
  1 21  1  0  0  0  0
  1 22  1  0  0  0  0
  2  3  1  0  0  0  0
  2 23  1  0  0  0  0
  2 24  1  0  0  0  0
  3  4  1  0  0  0  0
  3 25  1  0  0  0  0
  3 26  1  0  0  0  0
  4  5  1  0  0  0  0
  4  8  1  0  0  0  0
  5  6  1  0  0  0  0
  5 27  1  0  0  0  0
  5 28  1  0  0  0  0
  6  7  1  0  0  0  0
  6 29  1  0  0  0  0
  6 30  1  0  0  0  0
  7 31  1  0  0  0  0
  7 32  1  0  0  0  0
  7 33  1  0  0  0  0
  8  9  2  0  0  0  0
  8 10  1  0  0  0  0
 10 11  1  0  0  0  0
 10 34  1  0  0  0  0
 11 12  2  0  0  0  0
 11 16  1  0  0  0  0
 12 13  1  0  0  0  0
 12 35  1  0  0  0  0
 13 14  2  0  0  0  0
 13 19  1  0  0  0  0
 14 15  1  0  0  0  0
 14 18  1  0  0  0  0
 15 16  2  0  0  0  0
 15 36  1  0  0  0  0
 16 17  1  0  0  0  0
M  END
