
 OpenBabel10072620213D

 70 74  0  0  0  0  0  0  0  0999 V2000
   -2.7561   -0.0779   -0.0858 C   0  0  0  0  0  0  0  0  0  0  0  0
   -1.4885    0.6340    0.1561 C   0  0  0  0  0  0  0  0  0  0  0  0
   -0.6870    0.3460    1.1823 N   0  0  0  0  0  0  0  0  0  0  0  0
    0.3777    1.2220    1.0079 O   0  0  0  0  0  0  0  0  0  0  0  0
    0.1313    1.9732   -0.1314 C   0  0  0  0  0  0  0  0  0  0  0  0
   -1.0307    1.6248   -0.6675 N   0  0  0  0  0  0  0  0  0  0  0  0
    1.0355    2.9774   -0.6324 C   0  0  0  0  0  0  0  0  0  0  0  0
    2.2439    3.0946   -0.0403 C   0  0  0  0  0  0  0  0  0  0  0  0
    3.3480    3.9837   -0.4268 C   0  0  0  0  0  0  0  0  0  0  0  0
    4.1326    3.6840   -1.5501 C   0  0  0  0  0  0  0  0  0  0  0  0
    5.3001    4.4075   -1.8597 C   0  0  0  0  0  0  0  0  0  0  0  0
    5.6277    5.4807   -1.0108 C   0  0  0  0  0  0  0  0  0  0  0  0
    4.8293    5.8141    0.0894 C   0  0  0  0  0  0  0  0  0  0  0  0
    3.6935    5.0634    0.3845 C   0  0  0  0  0  0  0  0  0  0  0  0
    6.1645    4.0382   -3.0199 C   0  0  0  0  0  0  0  0  0  0  0  0
    6.4652    2.6901   -3.3238 C   0  0  0  0  0  0  0  0  0  0  0  0
    7.2524    2.4300   -4.4662 C   0  0  0  0  0  0  0  0  0  0  0  0
    7.7583    3.4749   -5.2544 C   0  0  0  0  0  0  0  0  0  0  0  0
    7.5356    4.8205   -4.9373 C   0  0  0  0  0  0  0  0  0  0  0  0
    6.7029    5.0720   -3.8343 C   0  0  0  0  0  0  0  0  0  0  0  0
    8.1911    5.9396   -5.7647 C   0  0  0  0  0  0  0  0  0  0  0  0
    7.8327    5.8195   -7.2601 C   0  0  0  0  0  0  0  0  0  0  0  0
    7.8251    7.3683   -5.3121 C   0  0  0  0  0  0  0  0  0  0  0  0
   10.0427    5.7532   -5.6030 S   0  0  0  0  0  0  0  0  0  0  0  0
   10.4739    4.5502   -6.2947 O   0  0  0  0  0  0  0  0  0  0  0  0
   10.6650    7.0216   -5.9431 O   0  0  0  0  0  0  0  0  0  0  0  0
   10.3485    5.4920   -3.8684 C   0  0  0  0  0  0  0  0  0  0  0  0
    7.5422    1.1012   -4.8050 C   0  0  0  0  0  0  0  0  0  0  0  0
    7.0750    0.0610   -4.0172 C   0  0  0  0  0  0  0  0  0  0  0  0
    6.3292    0.3896   -2.9085 C   0  0  0  0  0  0  0  0  0  0  0  0
    6.0276    1.6587   -2.5592 N   0  0  0  0  0  0  0  0  0  0  0  0
    0.6658    3.8538   -1.7654 C   0  0  0  0  0  0  0  0  0  0  0  0
    0.8078    3.4063   -3.0870 C   0  0  0  0  0  0  0  0  0  0  0  0
    0.4061    4.2152   -4.1518 C   0  0  0  0  0  0  0  0  0  0  0  0
   -0.1502    5.4697   -3.8881 C   0  0  0  0  0  0  0  0  0  0  0  0
   -0.2805    5.9367   -2.5783 C   0  0  0  0  0  0  0  0  0  0  0  0
    0.1257    5.1247   -1.5185 C   0  0  0  0  0  0  0  0  0  0  0  0
   -0.6880    6.4910   -5.2380 S   0  0  0  0  0  0  0  0  0  0  0  0
   -0.6907    7.8663   -4.7750 O   0  0  0  0  0  0  0  0  0  0  0  0
    0.0720    6.1034   -6.4106 O   0  0  0  0  0  0  0  0  0  0  0  0
   -2.3729    5.9867   -5.4748 C   0  0  0  0  0  0  0  0  0  0  0  0
   -3.2107   -0.4099    0.8529 H   0  0  0  0  0  0  0  0  0  0  0  0
   -2.5826   -0.9573   -0.7137 H   0  0  0  0  0  0  0  0  0  0  0  0
   -3.4738    0.5717   -0.5961 H   0  0  0  0  0  0  0  0  0  0  0  0
    2.5127    2.4588    0.8035 H   0  0  0  0  0  0  0  0  0  0  0  0
    3.8464    2.8393   -2.1743 H   0  0  0  0  0  0  0  0  0  0  0  0
    6.5283    6.0646   -1.1851 H   0  0  0  0  0  0  0  0  0  0  0  0
    5.1114    6.6456    0.7305 H   0  0  0  0  0  0  0  0  0  0  0  0
    3.0970    5.3143    1.2580 H   0  0  0  0  0  0  0  0  0  0  0  0
    8.3669    3.2119   -6.1208 H   0  0  0  0  0  0  0  0  0  0  0  0
    6.4353    6.0967   -3.5819 H   0  0  0  0  0  0  0  0  0  0  0  0
    6.7514    5.9116   -7.4133 H   0  0  0  0  0  0  0  0  0  0  0  0
    8.1468    4.8642   -7.6937 H   0  0  0  0  0  0  0  0  0  0  0  0
    8.3245    6.6052   -7.8468 H   0  0  0  0  0  0  0  0  0  0  0  0
    6.7441    7.5374   -5.3572 H   0  0  0  0  0  0  0  0  0  0  0  0
    8.2923    8.1223   -5.9556 H   0  0  0  0  0  0  0  0  0  0  0  0
    8.1595    7.5730   -4.2900 H   0  0  0  0  0  0  0  0  0  0  0  0
    9.9365    4.5307   -3.5608 H   0  0  0  0  0  0  0  0  0  0  0  0
    9.9073    6.3089   -3.2967 H   0  0  0  0  0  0  0  0  0  0  0  0
   11.4306    5.4796   -3.7204 H   0  0  0  0  0  0  0  0  0  0  0  0
    8.1390    0.8702   -5.6849 H   0  0  0  0  0  0  0  0  0  0  0  0
    7.2918   -0.9724   -4.2611 H   0  0  0  0  0  0  0  0  0  0  0  0
    5.9378   -0.3768   -2.2461 H   0  0  0  0  0  0  0  0  0  0  0  0
    1.2260    2.4224   -3.2910 H   0  0  0  0  0  0  0  0  0  0  0  0
    0.5270    3.8584   -5.1725 H   0  0  0  0  0  0  0  0  0  0  0  0
   -0.6967    6.9205   -2.3728 H   0  0  0  0  0  0  0  0  0  0  0  0
    0.0093    5.4826   -0.4978 H   0  0  0  0  0  0  0  0  0  0  0  0
   -2.9454    6.2238   -4.5757 H   0  0  0  0  0  0  0  0  0  0  0  0
   -2.3991    4.9148   -5.6797 H   0  0  0  0  0  0  0  0  0  0  0  0
   -2.7757    6.5368   -6.3281 H   0  0  0  0  0  0  0  0  0  0  0  0
  1  2  1  0  0  0  0
  1 42  1  0  0  0  0
  1 43  1  0  0  0  0
  1 44  1  0  0  0  0
  2  3  2  0  0  0  0
  2  6  1  0  0  0  0
  3  4  1  0  0  0  0
  4  5  1  0  0  0  0
  5  6  2  0  0  0  0
  5  7  1  0  0  0  0
  7  8  2  0  0  0  0
  7 32  1  0  0  0  0
  8  9  1  0  0  0  0
  8 45  1  0  0  0  0
  9 10  2  0  0  0  0
  9 14  1  0  0  0  0
 10 11  1  0  0  0  0
 10 46  1  0  0  0  0
 11 12  2  0  0  0  0
 11 15  1  0  0  0  0
 12 13  1  0  0  0  0
 12 47  1  0  0  0  0
 13 14  2  0  0  0  0
 13 48  1  0  0  0  0
 14 49  1  0  0  0  0
 15 16  2  0  0  0  0
 15 20  1  0  0  0  0
 16 17  1  0  0  0  0
 16 31  1  0  0  0  0
 17 18  2  0  0  0  0
 17 28  1  0  0  0  0
 18 19  1  0  0  0  0
 18 50  1  0  0  0  0
 19 20  2  0  0  0  0
 19 21  1  0  0  0  0
 20 51  1  0  0  0  0
 21 22  1  0  0  0  0
 21 23  1  0  0  0  0
 21 24  1  0  0  0  0
 22 52  1  0  0  0  0
 22 53  1  0  0  0  0
 22 54  1  0  0  0  0
 23 55  1  0  0  0  0
 23 56  1  0  0  0  0
 23 57  1  0  0  0  0
 24 25  2  0  0  0  0
 24 26  2  0  0  0  0
 24 27  1  0  0  0  0
 27 58  1  0  0  0  0
 27 59  1  0  0  0  0
 27 60  1  0  0  0  0
 28 29  2  0  0  0  0
 28 61  1  0  0  0  0
 29 30  1  0  0  0  0
 29 62  1  0  0  0  0
 30 31  2  0  0  0  0
 30 63  1  0  0  0  0
 32 33  2  0  0  0  0
 32 37  1  0  0  0  0
 33 34  1  0  0  0  0
 33 64  1  0  0  0  0
 34 35  2  0  0  0  0
 34 65  1  0  0  0  0
 35 36  1  0  0  0  0
 35 38  1  0  0  0  0
 36 37  2  0  0  0  0
 36 66  1  0  0  0  0
 37 67  1  0  0  0  0
 38 39  2  0  0  0  0
 38 40  2  0  0  0  0
 38 41  1  0  0  0  0
 41 68  1  0  0  0  0
 41 69  1  0  0  0  0
 41 70  1  0  0  0  0
M  END
