
 OpenBabel10072620043D

 29 30  0  0  1  0  0  0  0  0999 V2000
   -0.9292   -0.2751    0.0708 C   0  0  0  0  0  0  0  0  0  0  0  0
   -0.5086    1.1927   -0.0220 C   0  0  3  0  0  0  0  0  0  0  0  0
    0.9770    1.2296   -0.2381 C   0  0  0  0  0  0  0  0  0  0  0  0
    1.6359    0.0925    0.0207 C   0  0  0  0  0  0  0  0  0  0  0  0
    0.5509   -1.1285    0.5974 S   0  0  0  0  0  0  0  0  0  0  0  0
    0.5896   -1.1325    2.0468 O   0  0  0  0  0  0  0  0  0  0  0  0
    0.7150   -2.3357   -0.1825 O   0  0  0  0  0  0  0  0  0  0  0  0
   -0.7865    1.9486    1.1842 N   0  0  0  0  0  0  0  0  0  0  0  0
   -2.0819    2.3554    1.4422 C   0  0  0  0  0  0  0  0  0  0  0  0
   -2.9931    2.1328    0.6553 O   0  0  0  0  0  0  0  0  0  0  0  0
   -2.1608    3.0231    2.6420 N   0  0  0  0  0  0  0  0  0  0  0  0
   -3.3151    3.5407    3.2638 C   0  0  0  0  0  0  0  0  0  0  0  0
   -4.6113    3.3594    2.7750 C   0  0  0  0  0  0  0  0  0  0  0  0
   -5.7099    3.8990    3.4541 C   0  0  0  0  0  0  0  0  0  0  0  0
   -5.5156    4.6232    4.6260 C   0  0  0  0  0  0  0  0  0  0  0  0
   -4.2312    4.8108    5.1272 C   0  0  0  0  0  0  0  0  0  0  0  0
   -3.1350    4.2694    4.4477 C   0  0  0  0  0  0  0  0  0  0  0  0
   -6.8652    5.2904    5.4557 Cl  0  0  0  0  0  0  0  0  0  0  0  0
   -1.1888   -0.6682   -0.9180 H   0  0  0  0  0  0  0  0  0  0  0  0
   -1.7377   -0.4773    0.7765 H   0  0  0  0  0  0  0  0  0  0  0  0
   -1.0294    1.6705   -0.8596 H   0  0  0  0  0  0  0  0  0  0  0  0
    1.4691    2.1278   -0.5912 H   0  0  0  0  0  0  0  0  0  0  0  0
    2.6936   -0.0895   -0.0748 H   0  0  0  0  0  0  0  0  0  0  0  0
   -0.2242    1.7427    2.0004 H   0  0  0  0  0  0  0  0  0  0  0  0
   -1.2779    3.2451    3.0775 H   0  0  0  0  0  0  0  0  0  0  0  0
   -4.8057    2.7992    1.8657 H   0  0  0  0  0  0  0  0  0  0  0  0
   -6.7104    3.7491    3.0571 H   0  0  0  0  0  0  0  0  0  0  0  0
   -4.0747    5.3745    6.0430 H   0  0  0  0  0  0  0  0  0  0  0  0
   -2.1415    4.4259    4.8598 H   0  0  0  0  0  0  0  0  0  0  0  0
  1  2  1  0  0  0  0
  1  5  1  0  0  0  0
  1 19  1  0  0  0  0
  1 20  1  0  0  0  0
  2  3  1  0  0  0  0
  2  8  1  0  0  0  0
  2 21  1  0  0  0  0
  3  4  2  0  0  0  0
  3 22  1  0  0  0  0
  4  5  1  0  0  0  0
  4 23  1  0  0  0  0
  5  6  2  0  0  0  0
  5  7  2  0  0  0  0
  8  9  1  0  0  0  0
  8 24  1  0  0  0  0
  9 10  2  0  0  0  0
  9 11  1  0  0  0  0
 11 12  1  0  0  0  0
 11 25  1  0  0  0  0
 12 13  2  0  0  0  0
 12 17  1  0  0  0  0
 13 14  1  0  0  0  0
 13 26  1  0  0  0  0
 14 15  2  0  0  0  0
 14 27  1  0  0  0  0
 15 16  1  0  0  0  0
 15 18  1  0  0  0  0
 16 17  2  0  0  0  0
 16 28  1  0  0  0  0
 17 29  1  0  0  0  0
M  END
