
 OpenBabel10072620003D

 45 47  0  0  0  0  0  0  0  0999 V2000
   -1.5756    1.0479    1.1233 C   0  0  0  0  0  0  0  0  0  0  0  0
   -0.7744    2.3186    0.8013 C   0  0  0  0  0  0  0  0  0  0  0  0
    0.6203    2.0275    0.6276 O   0  0  0  0  0  0  0  0  0  0  0  0
    0.8023    1.1076   -0.4588 C   0  0  0  0  0  0  0  0  0  0  0  0
    0.0369   -0.2115   -0.2373 C   0  0  0  0  0  0  0  0  0  0  0  0
   -1.3964    0.0154    0.0643 N   0  0  0  0  0  0  0  0  0  0  0  0
   -2.3407    0.0494   -0.9804 C   0  0  0  0  0  0  0  0  0  0  0  0
   -1.9906    0.3336   -2.3096 C   0  0  0  0  0  0  0  0  0  0  0  0
   -2.9520    0.4170   -3.3225 C   0  0  0  0  0  0  0  0  0  0  0  0
   -4.2917    0.1946   -3.0330 C   0  0  0  0  0  0  0  0  0  0  0  0
   -4.6721   -0.1385   -1.7364 C   0  0  0  0  0  0  0  0  0  0  0  0
   -3.7144   -0.2111   -0.7138 C   0  0  0  0  0  0  0  0  0  0  0  0
   -4.0487   -0.6605    0.5861 N   0  0  0  0  0  0  0  0  0  0  0  0
   -5.2355   -0.6666    1.2774 C   0  0  0  0  0  0  0  0  0  0  0  0
   -5.2989   -1.6027    2.6618 S   0  0  0  0  0  0  0  0  0  0  0  0
   -6.1802    0.2213    0.8235 N   0  0  0  0  0  0  0  0  0  0  0  0
   -7.5460    0.3976    1.1255 C   0  0  0  0  0  0  0  0  0  0  0  0
   -8.3832   -0.5789    1.6669 C   0  0  0  0  0  0  0  0  0  0  0  0
   -9.7426   -0.3104    1.9057 C   0  0  0  0  0  0  0  0  0  0  0  0
  -10.2816    0.9364    1.5907 C   0  0  0  0  0  0  0  0  0  0  0  0
   -9.4474    1.9137    1.0486 C   0  0  0  0  0  0  0  0  0  0  0  0
   -8.1012    1.6395    0.7976 C   0  0  0  0  0  0  0  0  0  0  0  0
  -11.5737    1.3349    1.7685 O   0  0  0  0  0  0  0  0  0  0  0  0
  -12.5545    0.3215    1.9063 C   0  0  0  0  0  0  0  0  0  0  0  0
  -12.4316   -0.3164    3.0891 F   0  0  0  0  0  0  0  0  0  0  0  0
  -13.7768    0.8980    1.8658 F   0  0  0  0  0  0  0  0  0  0  0  0
  -12.4803   -0.5723    0.8969 F   0  0  0  0  0  0  0  0  0  0  0  0
   -2.6231    1.3196    1.2918 H   0  0  0  0  0  0  0  0  0  0  0  0
   -1.1970    0.6185    2.0598 H   0  0  0  0  0  0  0  0  0  0  0  0
   -0.8610    3.0276    1.6304 H   0  0  0  0  0  0  0  0  0  0  0  0
   -1.1545    2.8146   -0.0992 H   0  0  0  0  0  0  0  0  0  0  0  0
    1.8740    0.9012   -0.5388 H   0  0  0  0  0  0  0  0  0  0  0  0
    0.5018    1.6078   -1.3844 H   0  0  0  0  0  0  0  0  0  0  0  0
    0.4698   -0.7134    0.6380 H   0  0  0  0  0  0  0  0  0  0  0  0
    0.1733   -0.8944   -1.0844 H   0  0  0  0  0  0  0  0  0  0  0  0
   -0.9620    0.5170   -2.5957 H   0  0  0  0  0  0  0  0  0  0  0  0
   -2.6460    0.6470   -4.3400 H   0  0  0  0  0  0  0  0  0  0  0  0
   -5.0365    0.2406   -3.8234 H   0  0  0  0  0  0  0  0  0  0  0  0
   -5.7107   -0.4040   -1.5606 H   0  0  0  0  0  0  0  0  0  0  0  0
   -3.2572   -1.0633    1.0857 H   0  0  0  0  0  0  0  0  0  0  0  0
   -5.7627    0.9846    0.3054 H   0  0  0  0  0  0  0  0  0  0  0  0
   -8.0238   -1.5793    1.8852 H   0  0  0  0  0  0  0  0  0  0  0  0
  -10.3429   -1.1032    2.3459 H   0  0  0  0  0  0  0  0  0  0  0  0
   -9.8487    2.8958    0.8069 H   0  0  0  0  0  0  0  0  0  0  0  0
   -7.4904    2.4251    0.3595 H   0  0  0  0  0  0  0  0  0  0  0  0
  1  2  1  0  0  0  0
  1  6  1  0  0  0  0
  1 28  1  0  0  0  0
  1 29  1  0  0  0  0
  2  3  1  0  0  0  0
  2 30  1  0  0  0  0
  2 31  1  0  0  0  0
  3  4  1  0  0  0  0
  4  5  1  0  0  0  0
  4 32  1  0  0  0  0
  4 33  1  0  0  0  0
  5  6  1  0  0  0  0
  5 34  1  0  0  0  0
  5 35  1  0  0  0  0
  6  7  1  0  0  0  0
  7  8  2  0  0  0  0
  7 12  1  0  0  0  0
  8  9  1  0  0  0  0
  8 36  1  0  0  0  0
  9 10  2  0  0  0  0
  9 37  1  0  0  0  0
 10 11  1  0  0  0  0
 10 38  1  0  0  0  0
 11 12  2  0  0  0  0
 11 39  1  0  0  0  0
 12 13  1  0  0  0  0
 13 14  1  0  0  0  0
 13 40  1  0  0  0  0
 14 15  2  0  0  0  0
 14 16  1  0  0  0  0
 16 17  1  0  0  0  0
 16 41  1  0  0  0  0
 17 18  2  0  0  0  0
 17 22  1  0  0  0  0
 18 19  1  0  0  0  0
 18 42  1  0  0  0  0
 19 20  2  0  0  0  0
 19 43  1  0  0  0  0
 20 21  1  0  0  0  0
 20 23  1  0  0  0  0
 21 22  2  0  0  0  0
 21 44  1  0  0  0  0
 22 45  1  0  0  0  0
 23 24  1  0  0  0  0
 24 25  1  0  0  0  0
 24 26  1  0  0  0  0
 24 27  1  0  0  0  0
M  END
