
 OpenBabel10072616333D

 48 49  0  0  0  0  0  0  0  0999 V2000
   -4.7718   -3.4928   -4.0477 C   0  0  0  0  0  0  0  0  0  0  0  0
   -4.4951   -2.5594   -2.9052 C   0  0  0  0  0  0  0  0  0  0  0  0
   -3.5630   -1.5218   -3.0444 C   0  0  0  0  0  0  0  0  0  0  0  0
   -3.2841   -0.6730   -1.9726 C   0  0  0  0  0  0  0  0  0  0  0  0
   -3.9399   -0.8670   -0.7545 C   0  0  0  0  0  0  0  0  0  0  0  0
   -4.8497   -1.9140   -0.5911 C   0  0  0  0  0  0  0  0  0  0  0  0
   -5.1233   -2.7588   -1.6677 C   0  0  0  0  0  0  0  0  0  0  0  0
   -3.5931    0.2305    0.5966 S   0  0  0  0  0  0  0  0  0  0  0  0
   -4.3351   -0.2292    1.7509 O   0  0  0  0  0  0  0  0  0  0  0  0
   -2.1648    0.4425    0.6366 O   0  0  0  0  0  0  0  0  0  0  0  0
   -4.2934    1.6570    0.0979 N   0  0  0  0  0  0  0  0  0  0  0  0
   -5.7372    1.7060   -0.1413 C   0  0  0  0  0  0  0  0  0  0  0  0
   -6.1104    3.1160   -0.5801 C   0  0  0  0  0  0  0  0  0  0  0  0
   -5.3576    3.7810   -1.2929 O   0  0  0  0  0  0  0  0  0  0  0  0
   -7.3563    3.5210   -0.1192 N   0  0  0  0  0  0  0  0  0  0  0  0
   -7.8204    4.7610   -0.4391 N   0  0  0  0  0  0  0  0  0  0  0  0
   -8.9738    5.0785    0.0556 C   0  0  0  0  0  0  0  0  0  0  0  0
   -9.5891    6.3953   -0.1976 C   0  0  0  0  0  0  0  0  0  0  0  0
   -8.9307    7.3630   -0.9490 C   0  0  0  0  0  0  0  0  0  0  0  0
   -9.5323    8.6114   -1.1621 C   0  0  0  0  0  0  0  0  0  0  0  0
  -10.7937    8.9405   -0.6311 C   0  0  0  0  0  0  0  0  0  0  0  0
  -11.4343    7.9256    0.1063 C   0  0  0  0  0  0  0  0  0  0  0  0
  -10.8466    6.6712    0.3283 C   0  0  0  0  0  0  0  0  0  0  0  0
  -11.3984   10.1823   -0.8564 N   0  0  0  0  0  0  0  0  0  0  0  0
  -10.6241   11.2522   -1.4837 C   0  0  0  0  0  0  0  0  0  0  0  0
  -12.4664   10.6201    0.0414 C   0  0  0  0  0  0  0  0  0  0  0  0
   -4.5365   -3.0220   -5.0080 H   0  0  0  0  0  0  0  0  0  0  0  0
   -5.8313   -3.7690   -4.0719 H   0  0  0  0  0  0  0  0  0  0  0  0
   -4.1682   -4.3997   -3.9439 H   0  0  0  0  0  0  0  0  0  0  0  0
   -3.0462   -1.3709   -3.9902 H   0  0  0  0  0  0  0  0  0  0  0  0
   -2.5571    0.1274   -2.0914 H   0  0  0  0  0  0  0  0  0  0  0  0
   -5.3430   -2.0826    0.3634 H   0  0  0  0  0  0  0  0  0  0  0  0
   -5.8269   -3.5787   -1.5371 H   0  0  0  0  0  0  0  0  0  0  0  0
   -3.7120    2.2735   -0.4764 H   0  0  0  0  0  0  0  0  0  0  0  0
   -6.2774    1.4336    0.7699 H   0  0  0  0  0  0  0  0  0  0  0  0
   -6.0231    1.0346   -0.9560 H   0  0  0  0  0  0  0  0  0  0  0  0
   -7.8964    2.9389    0.5111 H   0  0  0  0  0  0  0  0  0  0  0  0
   -9.5467    4.3786    0.6903 H   0  0  0  0  0  0  0  0  0  0  0  0
   -7.9496    7.1621   -1.3748 H   0  0  0  0  0  0  0  0  0  0  0  0
   -8.9701    9.3244   -1.7577 H   0  0  0  0  0  0  0  0  0  0  0  0
  -12.4242    8.0838    0.5238 H   0  0  0  0  0  0  0  0  0  0  0  0
  -11.3885    5.9298    0.9084 H   0  0  0  0  0  0  0  0  0  0  0  0
  -10.2686   10.9550   -2.4763 H   0  0  0  0  0  0  0  0  0  0  0  0
   -9.7730   11.5418   -0.8577 H   0  0  0  0  0  0  0  0  0  0  0  0
  -11.2392   12.1451   -1.6422 H   0  0  0  0  0  0  0  0  0  0  0  0
  -13.3445    9.9711   -0.0408 H   0  0  0  0  0  0  0  0  0  0  0  0
  -12.8138   11.6277   -0.2133 H   0  0  0  0  0  0  0  0  0  0  0  0
  -12.1222   10.6441    1.0813 H   0  0  0  0  0  0  0  0  0  0  0  0
  1  2  1  0  0  0  0
  1 27  1  0  0  0  0
  1 28  1  0  0  0  0
  1 29  1  0  0  0  0
  2  3  2  0  0  0  0
  2  7  1  0  0  0  0
  3  4  1  0  0  0  0
  3 30  1  0  0  0  0
  4  5  2  0  0  0  0
  4 31  1  0  0  0  0
  5  6  1  0  0  0  0
  5  8  1  0  0  0  0
  6  7  2  0  0  0  0
  6 32  1  0  0  0  0
  7 33  1  0  0  0  0
  8  9  2  0  0  0  0
  8 10  2  0  0  0  0
  8 11  1  0  0  0  0
 11 12  1  0  0  0  0
 11 34  1  0  0  0  0
 12 13  1  0  0  0  0
 12 35  1  0  0  0  0
 12 36  1  0  0  0  0
 13 14  2  0  0  0  0
 13 15  1  0  0  0  0
 15 16  1  0  0  0  0
 15 37  1  0  0  0  0
 16 17  2  0  0  0  0
 17 18  1  0  0  0  0
 17 38  1  0  0  0  0
 18 19  2  0  0  0  0
 18 23  1  0  0  0  0
 19 20  1  0  0  0  0
 19 39  1  0  0  0  0
 20 21  2  0  0  0  0
 20 40  1  0  0  0  0
 21 22  1  0  0  0  0
 21 24  1  0  0  0  0
 22 23  2  0  0  0  0
 22 41  1  0  0  0  0
 23 42  1  0  0  0  0
 24 25  1  0  0  0  0
 24 26  1  0  0  0  0
 25 43  1  0  0  0  0
 25 44  1  0  0  0  0
 25 45  1  0  0  0  0
 26 46  1  0  0  0  0
 26 47  1  0  0  0  0
 26 48  1  0  0  0  0
M  END
