
 OpenBabel10072619503D

 16 16  0  0  0  0  0  0  0  0999 V2000
    0.1211    0.8831   -0.0753 C   0  0  0  0  0  0  0  0  0  0  0  0
    0.6443   -0.5164   -0.0652 C   0  0  0  0  0  0  0  0  0  0  0  0
   -0.8412   -0.2723    0.0141 C   0  0  0  0  0  0  0  0  0  0  0  0
   -1.5702   -0.5674   -1.1760 N   0  0  0  0  0  0  0  0  0  0  0  0
   -2.8100   -0.9051   -1.1281 C   0  0  0  0  0  0  0  0  0  0  0  0
   -3.6546   -0.9891   -0.0760 N   0  0  0  0  0  0  0  0  0  0  0  0
   -3.4563   -1.2417   -2.2661 N   0  0  0  0  0  0  0  0  0  0  0  0
    0.1629    1.4357   -1.0067 H   0  0  0  0  0  0  0  0  0  0  0  0
    0.2653    1.4893    0.8100 H   0  0  0  0  0  0  0  0  0  0  0  0
    1.1437   -0.8713    0.8275 H   0  0  0  0  0  0  0  0  0  0  0  0
    1.0428   -0.9185   -0.9893 H   0  0  0  0  0  0  0  0  0  0  0  0
   -1.3024   -0.4570    0.9779 H   0  0  0  0  0  0  0  0  0  0  0  0
   -3.3463   -0.4679    0.7337 H   0  0  0  0  0  0  0  0  0  0  0  0
   -4.5970   -0.7170   -0.3315 H   0  0  0  0  0  0  0  0  0  0  0  0
   -2.7818   -1.3133   -3.0228 H   0  0  0  0  0  0  0  0  0  0  0  0
   -3.9659   -2.1113   -2.1694 H   0  0  0  0  0  0  0  0  0  0  0  0
  1  2  1  0  0  0  0
  1  3  1  0  0  0  0
  1  8  1  0  0  0  0
  1  9  1  0  0  0  0
  2  3  1  0  0  0  0
  2 10  1  0  0  0  0
  2 11  1  0  0  0  0
  3  4  1  0  0  0  0
  3 12  1  0  0  0  0
  4  5  2  0  0  0  0
  5  6  1  0  0  0  0
  5  7  1  0  0  0  0
  6 13  1  0  0  0  0
  6 14  1  0  0  0  0
  7 15  1  0  0  0  0
  7 16  1  0  0  0  0
M  END
