
 OpenBabel10072619563D

 73 75  0  0  0  0  0  0  0  0999 V2000
    0.4084    1.9271   -2.3119 C   0  0  0  0  0  0  0  0  0  0  0  0
    0.8757    1.0244   -1.1795 C   0  0  0  0  0  0  0  0  0  0  0  0
    2.0930    1.5972   -0.4848 C   0  0  0  0  0  0  0  0  0  0  0  0
    2.0051    2.5612    0.5416 C   0  0  0  0  0  0  0  0  0  0  0  0
    3.1645    3.1798    1.0502 C   0  0  0  0  0  0  0  0  0  0  0  0
    4.4159    2.7842    0.5477 C   0  0  0  0  0  0  0  0  0  0  0  0
    4.5140    1.8156   -0.4483 C   0  0  0  0  0  0  0  0  0  0  0  0
    3.3610    1.2320   -0.9648 C   0  0  0  0  0  0  0  0  0  0  0  0
    3.1305    4.1928    2.1730 C   0  0  0  0  0  0  0  0  0  0  0  0
    3.1126    3.5333    3.5456 C   0  0  0  0  0  0  0  0  0  0  0  0
    0.7455    2.9235    1.0525 N   0  0  0  0  0  0  0  0  0  0  0  0
   -0.0135    2.1731    1.9225 C   0  0  0  0  0  0  0  0  0  0  0  0
   -1.0063    2.6975    2.4245 O   0  0  0  0  0  0  0  0  0  0  0  0
    0.4755    0.9258    2.2250 N   0  0  0  0  0  0  0  0  0  0  0  0
   -0.1222   -0.0095    3.0984 C   0  0  0  0  0  0  0  0  0  0  0  0
   -1.5011   -0.0360    3.3152 C   0  0  0  0  0  0  0  0  0  0  0  0
   -2.0634   -0.9523    4.2062 C   0  0  0  0  0  0  0  0  0  0  0  0
   -1.1998   -1.8145    4.8897 C   0  0  0  0  0  0  0  0  0  0  0  0
    0.1402   -1.8340    4.6734 N   0  0  0  0  0  0  0  0  0  0  0  0
    0.6589   -0.9571    3.7735 C   0  0  0  0  0  0  0  0  0  0  0  0
    2.1489   -1.0315    3.5886 C   0  0  0  0  0  0  0  0  0  0  0  0
   -1.7048   -2.8069    5.8957 C   0  0  0  0  0  0  0  0  0  0  0  0
   -3.4535   -0.9825    4.4520 N   0  0  0  0  0  0  0  0  0  0  0  0
   -4.4357   -0.6009    3.5561 C   0  0  0  0  0  0  0  0  0  0  0  0
   -4.2649   -0.3725    2.3679 O   0  0  0  0  0  0  0  0  0  0  0  0
   -5.6526   -0.5186    4.2164 N   0  0  0  0  0  0  0  0  0  0  0  0
   -6.8567   -0.2601    3.5207 C   0  0  0  0  0  0  0  0  0  0  0  0
   -7.3573   -1.1816    2.5700 C   0  0  0  0  0  0  0  0  0  0  0  0
   -8.5826   -0.9024    1.9387 C   0  0  0  0  0  0  0  0  0  0  0  0
   -9.3080    0.2424    2.2485 C   0  0  0  0  0  0  0  0  0  0  0  0
   -8.8146    1.1390    3.1894 C   0  0  0  0  0  0  0  0  0  0  0  0
   -7.5905    0.9060    3.8398 C   0  0  0  0  0  0  0  0  0  0  0  0
   -7.1098    1.9624    4.8126 C   0  0  0  0  0  0  0  0  0  0  0  0
   -7.7766    1.8299    6.1729 C   0  0  0  0  0  0  0  0  0  0  0  0
   -6.6942   -2.4998    2.2263 C   0  0  0  0  0  0  0  0  0  0  0  0
   -6.8067   -3.5335    3.3385 C   0  0  0  0  0  0  0  0  0  0  0  0
   -0.4430    1.4737   -2.8268 H   0  0  0  0  0  0  0  0  0  0  0  0
    1.2034    2.0832   -3.0482 H   0  0  0  0  0  0  0  0  0  0  0  0
    0.0959    2.9100   -1.9445 H   0  0  0  0  0  0  0  0  0  0  0  0
    1.1175    0.0341   -1.5845 H   0  0  0  0  0  0  0  0  0  0  0  0
    0.0545    0.8566   -0.4772 H   0  0  0  0  0  0  0  0  0  0  0  0
    5.3298    3.2290    0.9373 H   0  0  0  0  0  0  0  0  0  0  0  0
    5.4885    1.5323   -0.8400 H   0  0  0  0  0  0  0  0  0  0  0  0
    3.4546    0.5053   -1.7697 H   0  0  0  0  0  0  0  0  0  0  0  0
    2.2686    4.8592    2.0601 H   0  0  0  0  0  0  0  0  0  0  0  0
    4.0105    4.8439    2.1017 H   0  0  0  0  0  0  0  0  0  0  0  0
    2.1995    2.9509    3.7027 H   0  0  0  0  0  0  0  0  0  0  0  0
    3.1623    4.2955    4.3299 H   0  0  0  0  0  0  0  0  0  0  0  0
    3.9665    2.8591    3.6739 H   0  0  0  0  0  0  0  0  0  0  0  0
    0.5564    3.9060    1.2010 H   0  0  0  0  0  0  0  0  0  0  0  0
    1.4529    0.7946    2.0109 H   0  0  0  0  0  0  0  0  0  0  0  0
   -2.1444    0.6610    2.7867 H   0  0  0  0  0  0  0  0  0  0  0  0
    2.5794   -1.8260    4.2074 H   0  0  0  0  0  0  0  0  0  0  0  0
    2.6165   -0.0862    3.8843 H   0  0  0  0  0  0  0  0  0  0  0  0
    2.3956   -1.2530    2.5448 H   0  0  0  0  0  0  0  0  0  0  0  0
   -2.0996   -2.2880    6.7743 H   0  0  0  0  0  0  0  0  0  0  0  0
   -0.9017   -3.4730    6.2250 H   0  0  0  0  0  0  0  0  0  0  0  0
   -2.4919   -3.4288    5.4588 H   0  0  0  0  0  0  0  0  0  0  0  0
   -3.7946   -1.5943    5.1778 H   0  0  0  0  0  0  0  0  0  0  0  0
   -5.5316   -0.0119    5.0805 H   0  0  0  0  0  0  0  0  0  0  0  0
   -8.9871   -1.5956    1.2042 H   0  0  0  0  0  0  0  0  0  0  0  0
  -10.2574    0.4309    1.7548 H   0  0  0  0  0  0  0  0  0  0  0  0
   -9.3900    2.0356    3.4089 H   0  0  0  0  0  0  0  0  0  0  0  0
   -7.3310    2.9550    4.3996 H   0  0  0  0  0  0  0  0  0  0  0  0
   -6.0197    1.9450    4.9190 H   0  0  0  0  0  0  0  0  0  0  0  0
   -8.8619    1.9533    6.0919 H   0  0  0  0  0  0  0  0  0  0  0  0
   -7.4050    2.6041    6.8509 H   0  0  0  0  0  0  0  0  0  0  0  0
   -7.5801    0.8531    6.6268 H   0  0  0  0  0  0  0  0  0  0  0  0
   -5.6493   -2.3540    1.9425 H   0  0  0  0  0  0  0  0  0  0  0  0
   -7.1674   -2.9189    1.3285 H   0  0  0  0  0  0  0  0  0  0  0  0
   -6.2627   -3.2307    4.2385 H   0  0  0  0  0  0  0  0  0  0  0  0
   -6.3882   -4.4876    3.0014 H   0  0  0  0  0  0  0  0  0  0  0  0
   -7.8527   -3.7016    3.6165 H   0  0  0  0  0  0  0  0  0  0  0  0
  1  2  1  0  0  0  0
  1 37  1  0  0  0  0
  1 38  1  0  0  0  0
  1 39  1  0  0  0  0
  2  3  1  0  0  0  0
  2 40  1  0  0  0  0
  2 41  1  0  0  0  0
  3  4  2  0  0  0  0
  3  8  1  0  0  0  0
  4  5  1  0  0  0  0
  4 11  1  0  0  0  0
  5  6  2  0  0  0  0
  5  9  1  0  0  0  0
  6  7  1  0  0  0  0
  6 42  1  0  0  0  0
  7  8  2  0  0  0  0
  7 43  1  0  0  0  0
  8 44  1  0  0  0  0
  9 10  1  0  0  0  0
  9 45  1  0  0  0  0
  9 46  1  0  0  0  0
 10 47  1  0  0  0  0
 10 48  1  0  0  0  0
 10 49  1  0  0  0  0
 11 12  1  0  0  0  0
 11 50  1  0  0  0  0
 12 13  2  0  0  0  0
 12 14  1  0  0  0  0
 14 15  1  0  0  0  0
 14 51  1  0  0  0  0
 15 16  2  0  0  0  0
 15 20  1  0  0  0  0
 16 17  1  0  0  0  0
 16 52  1  0  0  0  0
 17 18  2  0  0  0  0
 17 23  1  0  0  0  0
 18 19  1  0  0  0  0
 18 22  1  0  0  0  0
 19 20  2  0  0  0  0
 20 21  1  0  0  0  0
 21 53  1  0  0  0  0
 21 54  1  0  0  0  0
 21 55  1  0  0  0  0
 22 56  1  0  0  0  0
 22 57  1  0  0  0  0
 22 58  1  0  0  0  0
 23 24  1  0  0  0  0
 23 59  1  0  0  0  0
 24 25  2  0  0  0  0
 24 26  1  0  0  0  0
 26 27  1  0  0  0  0
 26 60  1  0  0  0  0
 27 28  2  0  0  0  0
 27 32  1  0  0  0  0
 28 29  1  0  0  0  0
 28 35  1  0  0  0  0
 29 30  2  0  0  0  0
 29 61  1  0  0  0  0
 30 31  1  0  0  0  0
 30 62  1  0  0  0  0
 31 32  2  0  0  0  0
 31 63  1  0  0  0  0
 32 33  1  0  0  0  0
 33 34  1  0  0  0  0
 33 64  1  0  0  0  0
 33 65  1  0  0  0  0
 34 66  1  0  0  0  0
 34 67  1  0  0  0  0
 34 68  1  0  0  0  0
 35 36  1  0  0  0  0
 35 69  1  0  0  0  0
 35 70  1  0  0  0  0
 36 71  1  0  0  0  0
 36 72  1  0  0  0  0
 36 73  1  0  0  0  0
M  END
