
 OpenBabel10072616323D

 39 40  0  0  1  0  0  0  0  0999 V2000
    1.1507   -0.0345    0.2926 C   0  0  0  0  0  0  0  0  0  0  0  0
    2.6715    0.0934    0.3016 C   0  0  3  0  0  0  0  0  0  0  0  0
    3.0762    1.2041    1.2896 C   0  0  0  0  0  0  0  0  0  0  0  0
    4.5525    1.5963    1.1715 C   0  0  0  0  0  0  0  0  0  0  0  0
    4.9006    2.7193    2.1166 C   0  0  0  0  0  0  0  0  0  0  0  0
    5.4734    2.4432    3.3652 C   0  0  0  0  0  0  0  0  0  0  0  0
    5.7702    3.4797    4.2510 C   0  0  0  0  0  0  0  0  0  0  0  0
    5.4938    4.7993    3.8995 C   0  0  0  0  0  0  0  0  0  0  0  0
    4.9212    5.0842    2.6613 C   0  0  0  0  0  0  0  0  0  0  0  0
    4.6246    4.0495    1.7733 C   0  0  0  0  0  0  0  0  0  0  0  0
    3.3036   -1.1665    0.7106 N   0  0  0  0  0  0  0  0  0  0  0  0
    3.2812   -2.5708   -0.1936 S   0  0  0  0  0  0  0  0  0  0  0  0
    4.1228   -3.5275    0.4893 O   0  0  0  0  0  0  0  0  0  0  0  0
    1.9029   -2.8889   -0.4925 O   0  0  0  0  0  0  0  0  0  0  0  0
    4.0802   -2.1347   -1.7103 C   0  0  0  0  0  0  0  0  0  0  0  0
    5.4171   -1.7309   -1.7491 C   0  0  0  0  0  0  0  0  0  0  0  0
    6.0135   -1.4547   -2.9864 C   0  0  0  0  0  0  0  0  0  0  0  0
    5.2837   -1.5797   -4.1714 C   0  0  0  0  0  0  0  0  0  0  0  0
    3.9505   -1.9771   -4.1222 C   0  0  0  0  0  0  0  0  0  0  0  0
    3.3443   -2.2576   -2.9008 C   0  0  0  0  0  0  0  0  0  0  0  0
    3.0496   -2.1284   -5.5784 Cl  0  0  0  0  0  0  0  0  0  0  0  0
    6.4063   -1.5201   -0.3517 Cl  0  0  0  0  0  0  0  0  0  0  0  0
    0.6772    0.9377    0.1174 H   0  0  0  0  0  0  0  0  0  0  0  0
    0.7752   -0.4304    1.2421 H   0  0  0  0  0  0  0  0  0  0  0  0
    0.8083   -0.6947   -0.5083 H   0  0  0  0  0  0  0  0  0  0  0  0
    3.0165    0.3721   -0.6997 H   0  0  0  0  0  0  0  0  0  0  0  0
    2.8586    0.8887    2.3193 H   0  0  0  0  0  0  0  0  0  0  0  0
    2.4610    2.0943    1.1019 H   0  0  0  0  0  0  0  0  0  0  0  0
    4.7843    1.9044    0.1446 H   0  0  0  0  0  0  0  0  0  0  0  0
    5.1979    0.7373    1.3840 H   0  0  0  0  0  0  0  0  0  0  0  0
    5.6922    1.4188    3.6573 H   0  0  0  0  0  0  0  0  0  0  0  0
    6.2166    3.2569    5.2166 H   0  0  0  0  0  0  0  0  0  0  0  0
    5.7227    5.6053    4.5913 H   0  0  0  0  0  0  0  0  0  0  0  0
    4.7042    6.1133    2.3879 H   0  0  0  0  0  0  0  0  0  0  0  0
    4.1742    4.2879    0.8125 H   0  0  0  0  0  0  0  0  0  0  0  0
    3.9406   -1.1914    1.5059 H   0  0  0  0  0  0  0  0  0  0  0  0
    7.0551   -1.1417   -3.0366 H   0  0  0  0  0  0  0  0  0  0  0  0
    5.7625   -1.3697   -5.1250 H   0  0  0  0  0  0  0  0  0  0  0  0
    2.3054   -2.5826   -2.8813 H   0  0  0  0  0  0  0  0  0  0  0  0
  1  2  1  0  0  0  0
  1 23  1  0  0  0  0
  1 24  1  0  0  0  0
  1 25  1  0  0  0  0
  2  3  1  0  0  0  0
  2 11  1  0  0  0  0
  2 26  1  0  0  0  0
  3  4  1  0  0  0  0
  3 27  1  0  0  0  0
  3 28  1  0  0  0  0
  4  5  1  0  0  0  0
  4 29  1  0  0  0  0
  4 30  1  0  0  0  0
  5  6  2  0  0  0  0
  5 10  1  0  0  0  0
  6  7  1  0  0  0  0
  6 31  1  0  0  0  0
  7  8  2  0  0  0  0
  7 32  1  0  0  0  0
  8  9  1  0  0  0  0
  8 33  1  0  0  0  0
  9 10  2  0  0  0  0
  9 34  1  0  0  0  0
 10 35  1  0  0  0  0
 11 12  1  0  0  0  0
 11 36  1  0  0  0  0
 12 13  2  0  0  0  0
 12 14  2  0  0  0  0
 12 15  1  0  0  0  0
 15 16  2  0  0  0  0
 15 20  1  0  0  0  0
 16 17  1  0  0  0  0
 16 22  1  0  0  0  0
 17 18  2  0  0  0  0
 17 37  1  0  0  0  0
 18 19  1  0  0  0  0
 18 38  1  0  0  0  0
 19 20  2  0  0  0  0
 19 21  1  0  0  0  0
 20 39  1  0  0  0  0
M  END
