
 OpenBabel10072619593D

 34 35  0  0  1  0  0  0  0  0999 V2000
    1.2217   -0.0972   -0.2957 C   0  0  0  0  0  0  0  0  0  0  0  0
    2.6924    0.0618    0.0981 C   0  0  3  0  0  0  0  0  0  0  0  0
    2.8534    0.9837    1.2956 C   0  0  0  0  0  0  0  0  0  0  0  0
    2.2882    0.6731    2.5433 C   0  0  0  0  0  0  0  0  0  0  0  0
    2.4628    1.5246    3.6365 C   0  0  0  0  0  0  0  0  0  0  0  0
    3.2065    2.6950    3.4983 C   0  0  0  0  0  0  0  0  0  0  0  0
    3.7743    3.0161    2.2676 C   0  0  0  0  0  0  0  0  0  0  0  0
    3.6011    2.1659    1.1733 C   0  0  0  0  0  0  0  0  0  0  0  0
    3.3120   -1.2259    0.3777 N   0  0  0  0  0  0  0  0  0  0  0  0
    3.6834   -2.0589   -0.6574 C   0  0  0  0  0  0  0  0  0  0  0  0
    3.4560   -1.7983   -1.8299 O   0  0  0  0  0  0  0  0  0  0  0  0
    4.3134   -3.1803   -0.1731 N   0  0  0  0  0  0  0  0  0  0  0  0
    4.9413   -4.2134   -0.9049 C   0  0  0  0  0  0  0  0  0  0  0  0
    5.1437   -4.1541   -2.2872 C   0  0  0  0  0  0  0  0  0  0  0  0
    5.7915   -5.1981   -2.9577 C   0  0  0  0  0  0  0  0  0  0  0  0
    6.2480   -6.3111   -2.2563 C   0  0  0  0  0  0  0  0  0  0  0  0
    6.0587   -6.3839   -0.8781 C   0  0  0  0  0  0  0  0  0  0  0  0
    5.4117   -5.3417   -0.2076 C   0  0  0  0  0  0  0  0  0  0  0  0
    5.2122   -5.4793    1.5083 Cl  0  0  0  0  0  0  0  0  0  0  0  0
    0.7600    0.8775   -0.4866 H   0  0  0  0  0  0  0  0  0  0  0  0
    0.6416   -0.5988    0.4867 H   0  0  0  0  0  0  0  0  0  0  0  0
    1.1194   -0.6989   -1.2047 H   0  0  0  0  0  0  0  0  0  0  0  0
    3.2234    0.4993   -0.7572 H   0  0  0  0  0  0  0  0  0  0  0  0
    1.7075   -0.2381    2.6720 H   0  0  0  0  0  0  0  0  0  0  0  0
    2.0171    1.2762    4.5964 H   0  0  0  0  0  0  0  0  0  0  0  0
    3.3429    3.3583    4.3487 H   0  0  0  0  0  0  0  0  0  0  0  0
    4.3523    3.9305    2.1575 H   0  0  0  0  0  0  0  0  0  0  0  0
    4.0555    2.4350    0.2216 H   0  0  0  0  0  0  0  0  0  0  0  0
    3.9124   -1.2556    1.1883 H   0  0  0  0  0  0  0  0  0  0  0  0
    4.2152   -3.3479    0.8197 H   0  0  0  0  0  0  0  0  0  0  0  0
    4.8167   -3.3014   -2.8750 H   0  0  0  0  0  0  0  0  0  0  0  0
    5.9404   -5.1340   -4.0334 H   0  0  0  0  0  0  0  0  0  0  0  0
    6.7532   -7.1173   -2.7830 H   0  0  0  0  0  0  0  0  0  0  0  0
    6.4203   -7.2509   -0.3323 H   0  0  0  0  0  0  0  0  0  0  0  0
  1  2  1  0  0  0  0
  1 20  1  0  0  0  0
  1 21  1  0  0  0  0
  1 22  1  0  0  0  0
  2  3  1  0  0  0  0
  2  9  1  0  0  0  0
  2 23  1  0  0  0  0
  3  4  2  0  0  0  0
  3  8  1  0  0  0  0
  4  5  1  0  0  0  0
  4 24  1  0  0  0  0
  5  6  2  0  0  0  0
  5 25  1  0  0  0  0
  6  7  1  0  0  0  0
  6 26  1  0  0  0  0
  7  8  2  0  0  0  0
  7 27  1  0  0  0  0
  8 28  1  0  0  0  0
  9 10  1  0  0  0  0
  9 29  1  0  0  0  0
 10 11  2  0  0  0  0
 10 12  1  0  0  0  0
 12 13  1  0  0  0  0
 12 30  1  0  0  0  0
 13 14  2  0  0  0  0
 13 18  1  0  0  0  0
 14 15  1  0  0  0  0
 14 31  1  0  0  0  0
 15 16  2  0  0  0  0
 15 32  1  0  0  0  0
 16 17  1  0  0  0  0
 16 33  1  0  0  0  0
 17 18  2  0  0  0  0
 17 34  1  0  0  0  0
 18 19  1  0  0  0  0
M  END
