
 OpenBabel10072619533D

 48 50  0  0  0  0  0  0  0  0999 V2000
    3.7856    0.6472   -0.8781 C   0  0  0  0  0  0  0  0  0  0  0  0
    2.5535    0.4470    0.0250 C   0  0  0  0  0  0  0  0  0  0  0  0
    1.9377    1.8439    0.2691 C   0  0  0  0  0  0  0  0  0  0  0  0
    1.4983   -0.4161   -0.6957 C   0  0  0  0  0  0  0  0  0  0  0  0
    3.0014   -0.2363    1.3055 C   0  0  0  0  0  0  0  0  0  0  0  0
    3.1835    0.4687    2.4240 N   0  0  0  0  0  0  0  0  0  0  0  0
    3.6530   -0.4260    3.3396 N   0  0  0  0  0  0  0  0  0  0  0  0
    3.7222   -1.7188    2.8153 C   0  0  0  0  0  0  0  0  0  0  0  0
    3.3361   -1.6028    1.4944 C   0  0  0  0  0  0  0  0  0  0  0  0
    4.1102   -2.8324    3.5577 N   0  0  0  0  0  0  0  0  0  0  0  0
    4.5036   -4.0333    2.9864 C   0  0  0  0  0  0  0  0  0  0  0  0
    4.6997   -4.2173    1.7917 O   0  0  0  0  0  0  0  0  0  0  0  0
    4.6698   -5.0009    3.9621 N   0  0  0  0  0  0  0  0  0  0  0  0
    5.2789   -6.2678    3.7888 C   0  0  0  0  0  0  0  0  0  0  0  0
    4.9746   -7.3023    4.6968 C   0  0  0  0  0  0  0  0  0  0  0  0
    5.6317   -8.5367    4.5820 C   0  0  0  0  0  0  0  0  0  0  0  0
    6.5951   -8.7342    3.5831 C   0  0  0  0  0  0  0  0  0  0  0  0
    6.8905   -7.7141    2.6789 C   0  0  0  0  0  0  0  0  0  0  0  0
    6.2282   -6.4895    2.7772 C   0  0  0  0  0  0  0  0  0  0  0  0
    5.3050   -9.8554    5.6544 Cl  0  0  0  0  0  0  0  0  0  0  0  0
    3.7792   -7.0257    5.9370 Cl  0  0  0  0  0  0  0  0  0  0  0  0
    4.0528    0.0040    4.6563 C   0  0  0  0  0  0  0  0  0  0  0  0
    3.9392    1.3156    4.9578 N   0  0  0  0  0  0  0  0  0  0  0  0
    4.3596    1.7168    6.1640 C   0  0  0  0  0  0  0  0  0  0  0  0
    4.8791    0.8573    7.0945 C   0  0  0  0  0  0  0  0  0  0  0  0
    4.9616   -0.4792    6.7343 C   0  0  0  0  0  0  0  0  0  0  0  0
    4.5496   -0.9251    5.5128 N   0  0  0  0  0  0  0  0  0  0  0  0
    5.5549   -1.4761    7.7162 C   0  0  0  0  0  0  0  0  0  0  0  0
    5.8101   -0.9458    8.9466 F   0  0  0  0  0  0  0  0  0  0  0  0
    4.7298   -2.5372    7.9385 F   0  0  0  0  0  0  0  0  0  0  0  0
    6.7374   -1.9971    7.2849 F   0  0  0  0  0  0  0  0  0  0  0  0
    3.5177    1.1631   -1.8066 H   0  0  0  0  0  0  0  0  0  0  0  0
    4.2534   -0.3088   -1.1383 H   0  0  0  0  0  0  0  0  0  0  0  0
    4.5445    1.2529   -0.3648 H   0  0  0  0  0  0  0  0  0  0  0  0
    1.6462    2.3118   -0.6795 H   0  0  0  0  0  0  0  0  0  0  0  0
    2.6541    2.5198    0.7508 H   0  0  0  0  0  0  0  0  0  0  0  0
    1.0454    1.7973    0.9034 H   0  0  0  0  0  0  0  0  0  0  0  0
    1.1316    0.0733   -1.6038 H   0  0  0  0  0  0  0  0  0  0  0  0
    0.6328   -0.6113   -0.0498 H   0  0  0  0  0  0  0  0  0  0  0  0
    1.9027   -1.3902   -0.9912 H   0  0  0  0  0  0  0  0  0  0  0  0
    3.2933   -2.3951    0.7565 H   0  0  0  0  0  0  0  0  0  0  0  0
    4.3597   -2.6782    4.5335 H   0  0  0  0  0  0  0  0  0  0  0  0
    4.0741   -4.9111    4.7761 H   0  0  0  0  0  0  0  0  0  0  0  0
    7.1205   -9.6841    3.5013 H   0  0  0  0  0  0  0  0  0  0  0  0
    7.6459   -7.8621    1.9078 H   0  0  0  0  0  0  0  0  0  0  0  0
    6.4973   -5.7080    2.0682 H   0  0  0  0  0  0  0  0  0  0  0  0
    4.2588    2.7823    6.3577 H   0  0  0  0  0  0  0  0  0  0  0  0
    5.2076    1.2266    8.0577 H   0  0  0  0  0  0  0  0  0  0  0  0
  1  2  1  0  0  0  0
  1 32  1  0  0  0  0
  1 33  1  0  0  0  0
  1 34  1  0  0  0  0
  2  3  1  0  0  0  0
  2  4  1  0  0  0  0
  2  5  1  0  0  0  0
  3 35  1  0  0  0  0
  3 36  1  0  0  0  0
  3 37  1  0  0  0  0
  4 38  1  0  0  0  0
  4 39  1  0  0  0  0
  4 40  1  0  0  0  0
  5  6  2  0  0  0  0
  5  9  1  0  0  0  0
  6  7  1  0  0  0  0
  7  8  1  0  0  0  0
  7 22  1  0  0  0  0
  8  9  2  0  0  0  0
  8 10  1  0  0  0  0
  9 41  1  0  0  0  0
 10 11  1  0  0  0  0
 10 42  1  0  0  0  0
 11 12  2  0  0  0  0
 11 13  1  0  0  0  0
 13 14  1  0  0  0  0
 13 43  1  0  0  0  0
 14 15  2  0  0  0  0
 14 19  1  0  0  0  0
 15 16  1  0  0  0  0
 15 21  1  0  0  0  0
 16 17  2  0  0  0  0
 16 20  1  0  0  0  0
 17 18  1  0  0  0  0
 17 44  1  0  0  0  0
 18 19  2  0  0  0  0
 18 45  1  0  0  0  0
 19 46  1  0  0  0  0
 22 23  2  0  0  0  0
 22 27  1  0  0  0  0
 23 24  1  0  0  0  0
 24 25  2  0  0  0  0
 24 47  1  0  0  0  0
 25 26  1  0  0  0  0
 25 48  1  0  0  0  0
 26 27  2  0  0  0  0
 26 28  1  0  0  0  0
 28 29  1  0  0  0  0
 28 30  1  0  0  0  0
 28 31  1  0  0  0  0
M  END
