
 OpenBabel10072620213D

 65 67  0  0  0  0  0  0  0  0999 V2000
    0.7953   -6.1360   -4.4255 C   0  0  0  0  0  0  0  0  0  0  0  0
    1.7495   -4.9606   -4.5601 C   0  0  0  0  0  0  0  0  0  0  0  0
    3.1493   -5.3957   -4.1580 C   0  0  0  0  0  0  0  0  0  0  0  0
    4.1036   -4.2203   -4.2927 C   0  0  0  0  0  0  0  0  0  0  0  0
    5.5037   -4.6560   -3.8924 C   0  0  0  0  0  0  0  0  0  0  0  0
    6.3952   -3.5579   -4.0183 O   0  0  0  0  0  0  0  0  0  0  0  0
    7.1039   -3.0849   -2.8823 C   0  0  0  0  0  0  0  0  0  0  0  0
    6.4673   -2.6574   -1.8688 O   0  0  0  0  0  0  0  0  0  0  0  0
    8.6239   -3.0900   -2.8784 C   0  0  0  0  0  0  0  0  0  0  0  0
    9.2740   -2.6450   -1.8095 C   0  0  0  0  0  0  0  0  0  0  0  0
   10.6381   -2.7796   -1.7143 C   0  0  0  0  0  0  0  0  0  0  0  0
   11.3685   -3.2895   -2.7516 C   0  0  0  0  0  0  0  0  0  0  0  0
   10.6824   -3.7884   -3.7637 C   0  0  0  0  0  0  0  0  0  0  0  0
    9.3046   -3.5588   -3.9899 C   0  0  0  0  0  0  0  0  0  0  0  0
   12.8384   -3.2829   -2.7408 N   0  0  0  0  0  0  0  0  0  0  0  0
   13.5635   -3.1418   -1.4698 C   0  0  0  0  0  0  0  0  0  0  0  0
   12.9195   -3.0272   -0.3802 O   0  0  0  0  0  0  0  0  0  0  0  0
   15.0834   -3.1330   -1.4588 C   0  0  0  0  0  0  0  0  0  0  0  0
   15.7544   -3.0042   -0.2825 C   0  0  0  0  0  0  0  0  0  0  0  0
   17.2744   -2.9954   -0.2715 C   0  0  0  0  0  0  0  0  0  0  0  0
   17.9190   -1.8405   -0.3896 C   0  0  0  0  0  0  0  0  0  0  0  0
   19.2835   -1.7827   -0.2392 C   0  0  0  0  0  0  0  0  0  0  0  0
   20.0196   -2.9202   -0.0559 C   0  0  0  0  0  0  0  0  0  0  0  0
   19.3391   -4.0365    0.1304 C   0  0  0  0  0  0  0  0  0  0  0  0
   17.9608   -4.1922   -0.1490 C   0  0  0  0  0  0  0  0  0  0  0  0
   21.4395   -2.9022   -0.0654 O   0  0  0  0  0  0  0  0  0  0  0  0
   22.1377   -1.7428    0.3643 C   0  0  0  0  0  0  0  0  0  0  0  0
   21.6262   -0.9829    1.2452 O   0  0  0  0  0  0  0  0  0  0  0  0
   23.4970   -1.4106   -0.2294 C   0  0  0  0  0  0  0  0  0  0  0  0
   24.1382   -0.3231    0.1821 C   0  0  0  0  0  0  0  0  0  0  0  0
   25.4259   -0.0735   -0.2271 C   0  0  0  0  0  0  0  0  0  0  0  0
   26.0448   -0.8860   -1.1361 C   0  0  0  0  0  0  0  0  0  0  0  0
   25.4059   -1.9942   -1.4640 C   0  0  0  0  0  0  0  0  0  0  0  0
   24.0386   -2.2414   -1.1963 C   0  0  0  0  0  0  0  0  0  0  0  0
   27.3957   -0.5327   -1.7368 C   0  0  0  0  0  0  0  0  0  0  0  0
   15.8536   -3.2683   -2.7623 C   0  0  0  0  0  0  0  0  0  0  0  0
   16.4926   -3.3804   -3.8435 N   0  0  0  0  0  0  0  0  0  0  0  0
   -0.1901   -5.8297   -4.7086 H   0  0  0  0  0  0  0  0  0  0  0  0
    0.7860   -6.4734   -3.4101 H   0  0  0  0  0  0  0  0  0  0  0  0
    1.1181   -6.9324   -5.0630 H   0  0  0  0  0  0  0  0  0  0  0  0
    1.4267   -4.1642   -3.9227 H   0  0  0  0  0  0  0  0  0  0  0  0
    1.7588   -4.6232   -5.5755 H   0  0  0  0  0  0  0  0  0  0  0  0
    3.4722   -6.1921   -4.7955 H   0  0  0  0  0  0  0  0  0  0  0  0
    3.1400   -5.7331   -3.1426 H   0  0  0  0  0  0  0  0  0  0  0  0
    3.7815   -3.4244   -3.6541 H   0  0  0  0  0  0  0  0  0  0  0  0
    4.1118   -3.8821   -5.3078 H   0  0  0  0  0  0  0  0  0  0  0  0
    5.8258   -5.4519   -4.5310 H   0  0  0  0  0  0  0  0  0  0  0  0
    5.4955   -4.9942   -2.8773 H   0  0  0  0  0  0  0  0  0  0  0  0
    8.7500   -2.1939   -1.0434 H   0  0  0  0  0  0  0  0  0  0  0  0
   11.1183   -2.4916   -0.8474 H   0  0  0  0  0  0  0  0  0  0  0  0
   11.1861   -4.3874   -4.4363 H   0  0  0  0  0  0  0  0  0  0  0  0
    8.8483   -3.7255   -4.9004 H   0  0  0  0  0  0  0  0  0  0  0  0
   13.3373   -3.3728   -3.5847 H   0  0  0  0  0  0  0  0  0  0  0  0
   15.2315   -2.9123    0.6025 H   0  0  0  0  0  0  0  0  0  0  0  0
   17.3904   -0.9787   -0.5963 H   0  0  0  0  0  0  0  0  0  0  0  0
   19.7597   -0.8674   -0.2649 H   0  0  0  0  0  0  0  0  0  0  0  0
   19.8480   -4.8521    0.5058 H   0  0  0  0  0  0  0  0  0  0  0  0
   17.5080   -5.1138   -0.2520 H   0  0  0  0  0  0  0  0  0  0  0  0
   23.6651    0.3407    0.8151 H   0  0  0  0  0  0  0  0  0  0  0  0
   25.9332    0.7390    0.1571 H   0  0  0  0  0  0  0  0  0  0  0  0
   25.9409   -2.7313   -1.9493 H   0  0  0  0  0  0  0  0  0  0  0  0
   23.4944   -2.9742   -1.6778 H   0  0  0  0  0  0  0  0  0  0  0  0
   27.7311    0.4009   -1.3358 H   0  0  0  0  0  0  0  0  0  0  0  0
   27.3031   -0.4518   -2.7997 H   0  0  0  0  0  0  0  0  0  0  0  0
   28.1036   -1.2986   -1.4977 H   0  0  0  0  0  0  0  0  0  0  0  0
  1  2  1  0  0  0  0
  1 38  1  0  0  0  0
  1 39  1  0  0  0  0
  1 40  1  0  0  0  0
  2  3  1  0  0  0  0
  2 41  1  0  0  0  0
  2 42  1  0  0  0  0
  3  4  1  0  0  0  0
  3 43  1  0  0  0  0
  3 44  1  0  0  0  0
  4  5  1  0  0  0  0
  4 45  1  0  0  0  0
  4 46  1  0  0  0  0
  5  6  1  0  0  0  0
  5 47  1  0  0  0  0
  5 48  1  0  0  0  0
  6  7  1  0  0  0  0
  7  8  2  0  0  0  0
  7  9  1  0  0  0  0
  9 10  2  0  0  0  0
  9 14  1  0  0  0  0
 10 11  1  0  0  0  0
 10 49  1  0  0  0  0
 11 12  2  0  0  0  0
 11 50  1  0  0  0  0
 12 13  1  0  0  0  0
 12 15  1  0  0  0  0
 13 14  2  0  0  0  0
 13 51  1  0  0  0  0
 14 52  1  0  0  0  0
 15 16  1  0  0  0  0
 15 53  1  0  0  0  0
 16 17  2  0  0  0  0
 16 18  1  0  0  0  0
 18 19  2  0  0  0  0
 18 36  1  0  0  0  0
 19 20  1  0  0  0  0
 19 54  1  0  0  0  0
 20 21  2  0  0  0  0
 20 25  1  0  0  0  0
 21 22  1  0  0  0  0
 21 55  1  0  0  0  0
 22 23  2  0  0  0  0
 22 56  1  0  0  0  0
 23 24  1  0  0  0  0
 23 26  1  0  0  0  0
 24 25  2  0  0  0  0
 24 57  1  0  0  0  0
 25 58  1  0  0  0  0
 26 27  1  0  0  0  0
 27 28  2  0  0  0  0
 27 29  1  0  0  0  0
 29 30  2  0  0  0  0
 29 34  1  0  0  0  0
 30 31  1  0  0  0  0
 30 59  1  0  0  0  0
 31 32  2  0  0  0  0
 31 60  1  0  0  0  0
 32 33  1  0  0  0  0
 32 35  1  0  0  0  0
 33 34  2  0  0  0  0
 33 61  1  0  0  0  0
 34 62  1  0  0  0  0
 35 63  1  0  0  0  0
 35 64  1  0  0  0  0
 35 65  1  0  0  0  0
 36 37  3  0  0  0  0
M  END
