
 OpenBabel10072619523D

 45 46  0  0  0  0  0  0  0  0999 V2000
    8.5107    0.2374    0.5847 C   0  0  0  0  0  0  0  0  0  0  0  0
    7.4365   -0.7203    0.0973 C   0  0  0  0  0  0  0  0  0  0  0  0
    6.0732   -0.1784    0.3514 N   0  0  0  0  0  0  0  0  0  0  0  0
    5.6851    0.9952   -0.4824 C   0  0  0  0  0  0  0  0  0  0  0  0
    5.5271    0.6704   -1.9580 C   0  0  0  0  0  0  0  0  0  0  0  0
    4.8448   -1.3564    0.5494 S   0  0  0  0  0  0  0  0  0  0  0  0
    3.5784   -0.6890    0.7524 O   0  0  0  0  0  0  0  0  0  0  0  0
    5.0204   -2.3407   -0.4997 O   0  0  0  0  0  0  0  0  0  0  0  0
    5.2783   -2.1174    2.0958 C   0  0  0  0  0  0  0  0  0  0  0  0
    5.3776   -1.3272    3.2422 C   0  0  0  0  0  0  0  0  0  0  0  0
    5.7232   -1.9188    4.4623 C   0  0  0  0  0  0  0  0  0  0  0  0
    5.9687   -3.2922    4.5413 C   0  0  0  0  0  0  0  0  0  0  0  0
    5.8535   -4.0725    3.3804 C   0  0  0  0  0  0  0  0  0  0  0  0
    5.5099   -3.4912    2.1575 C   0  0  0  0  0  0  0  0  0  0  0  0
    6.3406   -3.9660    5.7226 N   0  0  0  0  0  0  0  0  0  0  0  0
    6.4998   -3.4356    6.9959 C   0  0  0  0  0  0  0  0  0  0  0  0
    6.3048   -2.2664    7.2978 O   0  0  0  0  0  0  0  0  0  0  0  0
    6.9257   -4.4251    7.8734 N   0  0  0  0  0  0  0  0  0  0  0  0
    7.2102   -4.3002    9.2488 C   0  0  0  0  0  0  0  0  0  0  0  0
    7.0696   -3.1174    9.9766 C   0  0  0  0  0  0  0  0  0  0  0  0
    7.3700   -3.0840   11.3440 C   0  0  0  0  0  0  0  0  0  0  0  0
    7.8138   -4.2357   11.9877 C   0  0  0  0  0  0  0  0  0  0  0  0
    7.9639   -5.4212   11.2755 C   0  0  0  0  0  0  0  0  0  0  0  0
    7.6624   -5.4521    9.9100 C   0  0  0  0  0  0  0  0  0  0  0  0
    8.1742   -4.1944   13.6690 Cl  0  0  0  0  0  0  0  0  0  0  0  0
    9.4984   -0.2202    0.4710 H   0  0  0  0  0  0  0  0  0  0  0  0
    8.3664    0.4841    1.6415 H   0  0  0  0  0  0  0  0  0  0  0  0
    8.5151    1.1699    0.0127 H   0  0  0  0  0  0  0  0  0  0  0  0
    7.5686   -1.6624    0.6387 H   0  0  0  0  0  0  0  0  0  0  0  0
    7.5758   -0.9407   -0.9647 H   0  0  0  0  0  0  0  0  0  0  0  0
    6.4287    1.7896   -0.3609 H   0  0  0  0  0  0  0  0  0  0  0  0
    4.7521    1.4209   -0.0936 H   0  0  0  0  0  0  0  0  0  0  0  0
    6.4647    0.3195   -2.3988 H   0  0  0  0  0  0  0  0  0  0  0  0
    5.2259    1.5688   -2.5071 H   0  0  0  0  0  0  0  0  0  0  0  0
    4.7650   -0.0962   -2.1253 H   0  0  0  0  0  0  0  0  0  0  0  0
    5.1856   -0.2571    3.1963 H   0  0  0  0  0  0  0  0  0  0  0  0
    5.7922   -1.2744    5.3334 H   0  0  0  0  0  0  0  0  0  0  0  0
    6.0269   -5.1453    3.4104 H   0  0  0  0  0  0  0  0  0  0  0  0
    5.4198   -4.1129    1.2694 H   0  0  0  0  0  0  0  0  0  0  0  0
    6.4935   -4.9563    5.6262 H   0  0  0  0  0  0  0  0  0  0  0  0
    7.0730   -5.3407    7.4821 H   0  0  0  0  0  0  0  0  0  0  0  0
    6.7246   -2.1980    9.5131 H   0  0  0  0  0  0  0  0  0  0  0  0
    7.2494   -2.1548   11.8947 H   0  0  0  0  0  0  0  0  0  0  0  0
    8.3101   -6.3228   11.7743 H   0  0  0  0  0  0  0  0  0  0  0  0
    7.7887   -6.3901    9.3758 H   0  0  0  0  0  0  0  0  0  0  0  0
  1  2  1  0  0  0  0
  1 26  1  0  0  0  0
  1 27  1  0  0  0  0
  1 28  1  0  0  0  0
  2  3  1  0  0  0  0
  2 29  1  0  0  0  0
  2 30  1  0  0  0  0
  3  4  1  0  0  0  0
  3  6  1  0  0  0  0
  4  5  1  0  0  0  0
  4 31  1  0  0  0  0
  4 32  1  0  0  0  0
  5 33  1  0  0  0  0
  5 34  1  0  0  0  0
  5 35  1  0  0  0  0
  6  7  2  0  0  0  0
  6  8  2  0  0  0  0
  6  9  1  0  0  0  0
  9 10  2  0  0  0  0
  9 14  1  0  0  0  0
 10 11  1  0  0  0  0
 10 36  1  0  0  0  0
 11 12  2  0  0  0  0
 11 37  1  0  0  0  0
 12 13  1  0  0  0  0
 12 15  1  0  0  0  0
 13 14  2  0  0  0  0
 13 38  1  0  0  0  0
 14 39  1  0  0  0  0
 15 16  1  0  0  0  0
 15 40  1  0  0  0  0
 16 17  2  0  0  0  0
 16 18  1  0  0  0  0
 18 19  1  0  0  0  0
 18 41  1  0  0  0  0
 19 20  2  0  0  0  0
 19 24  1  0  0  0  0
 20 21  1  0  0  0  0
 20 42  1  0  0  0  0
 21 22  2  0  0  0  0
 21 43  1  0  0  0  0
 22 23  1  0  0  0  0
 22 25  1  0  0  0  0
 23 24  2  0  0  0  0
 23 44  1  0  0  0  0
 24 45  1  0  0  0  0
M  END
