
 OpenBabel10072616323D

 37 39  0  0  0  0  0  0  0  0999 V2000
    2.0371    0.5033    0.4930 C   0  0  0  0  0  0  0  0  0  0  0  0
    1.7136    1.1861    1.6704 C   0  0  0  0  0  0  0  0  0  0  0  0
    0.5695    0.8588    2.4069 C   0  0  0  0  0  0  0  0  0  0  0  0
   -0.2170   -0.1698    1.8947 C   0  0  0  0  0  0  0  0  0  0  0  0
    0.0625   -0.8597    0.7290 C   0  0  0  0  0  0  0  0  0  0  0  0
    1.2208   -0.5284    0.0049 C   0  0  0  0  0  0  0  0  0  0  0  0
   -1.0128   -1.7785    0.6142 C   0  0  0  0  0  0  0  0  0  0  0  0
   -1.8673   -1.6706    1.6425 N   0  0  0  0  0  0  0  0  0  0  0  0
   -1.3625   -0.6561    2.4428 O   0  0  0  0  0  0  0  0  0  0  0  0
   -1.2620   -2.7769   -0.4537 C   0  0  0  0  0  0  0  0  0  0  0  0
   -0.3461   -3.9626   -0.2666 C   0  0  0  0  0  0  0  0  0  0  0  0
    0.8038   -3.9975   -0.7093 O   0  0  0  0  0  0  0  0  0  0  0  0
   -0.8869   -4.9966    0.4743 N   0  0  0  0  0  0  0  0  0  0  0  0
   -0.0123   -6.0212    0.8774 N   0  0  0  0  0  0  0  0  0  0  0  0
   -0.4639   -7.3342    1.0467 C   0  0  0  0  0  0  0  0  0  0  0  0
   -2.0846   -7.7533    1.0374 S   0  0  0  0  0  0  0  0  0  0  0  0
    0.6250   -8.1542    1.3177 N   0  0  0  0  0  0  0  0  0  0  0  0
    0.7977   -9.5515    1.2462 C   0  0  0  0  0  0  0  0  0  0  0  0
   -0.0373  -10.4188    0.5395 C   0  0  0  0  0  0  0  0  0  0  0  0
    0.2566  -11.7872    0.4707 C   0  0  0  0  0  0  0  0  0  0  0  0
    1.3952  -12.2907    1.0940 C   0  0  0  0  0  0  0  0  0  0  0  0
    2.2451  -11.4365    1.7880 C   0  0  0  0  0  0  0  0  0  0  0  0
    1.9463  -10.0730    1.8618 C   0  0  0  0  0  0  0  0  0  0  0  0
    1.7627  -13.9681    0.9931 Cl  0  0  0  0  0  0  0  0  0  0  0  0
    2.9383    0.7743   -0.0542 H   0  0  0  0  0  0  0  0  0  0  0  0
    2.3639    1.9853    2.0219 H   0  0  0  0  0  0  0  0  0  0  0  0
    0.3060    1.3724    3.3234 H   0  0  0  0  0  0  0  0  0  0  0  0
    1.4891   -1.0605   -0.9041 H   0  0  0  0  0  0  0  0  0  0  0  0
   -1.0751   -2.3454   -1.4438 H   0  0  0  0  0  0  0  0  0  0  0  0
   -2.3064   -3.1106   -0.4519 H   0  0  0  0  0  0  0  0  0  0  0  0
   -1.7529   -4.8954    1.0020 H   0  0  0  0  0  0  0  0  0  0  0  0
    0.9349   -5.8980    0.5149 H   0  0  0  0  0  0  0  0  0  0  0  0
    1.4013   -7.6512    1.7305 H   0  0  0  0  0  0  0  0  0  0  0  0
   -0.9068  -10.0653   -0.0041 H   0  0  0  0  0  0  0  0  0  0  0  0
   -0.4027  -12.4486   -0.0855 H   0  0  0  0  0  0  0  0  0  0  0  0
    3.1414  -11.8186    2.2689 H   0  0  0  0  0  0  0  0  0  0  0  0
    2.6251   -9.4255    2.4123 H   0  0  0  0  0  0  0  0  0  0  0  0
  1  2  2  0  0  0  0
  1  6  1  0  0  0  0
  1 25  1  0  0  0  0
  2  3  1  0  0  0  0
  2 26  1  0  0  0  0
  3  4  2  0  0  0  0
  3 27  1  0  0  0  0
  4  5  1  0  0  0  0
  4  9  1  0  0  0  0
  5  6  2  0  0  0  0
  5  7  1  0  0  0  0
  6 28  1  0  0  0  0
  7  8  2  0  0  0  0
  7 10  1  0  0  0  0
  8  9  1  0  0  0  0
 10 11  1  0  0  0  0
 10 29  1  0  0  0  0
 10 30  1  0  0  0  0
 11 12  2  0  0  0  0
 11 13  1  0  0  0  0
 13 14  1  0  0  0  0
 13 31  1  0  0  0  0
 14 15  1  0  0  0  0
 14 32  1  0  0  0  0
 15 16  2  0  0  0  0
 15 17  1  0  0  0  0
 17 18  1  0  0  0  0
 17 33  1  0  0  0  0
 18 19  2  0  0  0  0
 18 23  1  0  0  0  0
 19 20  1  0  0  0  0
 19 34  1  0  0  0  0
 20 21  2  0  0  0  0
 20 35  1  0  0  0  0
 21 22  1  0  0  0  0
 21 24  1  0  0  0  0
 22 23  2  0  0  0  0
 22 36  1  0  0  0  0
 23 37  1  0  0  0  0
M  END
