
 OpenBabel10072619473D

 49 51  0  0  0  0  0  0  0  0999 V2000
    1.1824   -0.8825    0.3386 C   0  0  0  0  0  0  0  0  0  0  0  0
    0.9647   -0.2165   -0.8667 C   0  0  0  0  0  0  0  0  0  0  0  0
   -0.2544    0.4313   -1.1019 C   0  0  0  0  0  0  0  0  0  0  0  0
   -1.2579    0.4270   -0.1245 C   0  0  0  0  0  0  0  0  0  0  0  0
   -1.0203   -0.2295    1.0879 C   0  0  0  0  0  0  0  0  0  0  0  0
    0.1936   -0.8812    1.3193 C   0  0  0  0  0  0  0  0  0  0  0  0
   -2.5714    1.0024   -0.3465 N   0  0  0  0  0  0  0  0  0  0  0  0
   -2.6693    2.2376   -1.1771 C   0  0  0  0  0  0  0  0  0  0  0  0
   -1.7658    3.3721   -0.7614 C   0  0  0  0  0  0  0  0  0  0  0  0
   -1.2048    4.0692   -1.6060 O   0  0  0  0  0  0  0  0  0  0  0  0
   -1.7140    3.5733    0.6103 N   0  0  0  0  0  0  0  0  0  0  0  0
   -0.9405    4.5827    1.0777 N   0  0  0  0  0  0  0  0  0  0  0  0
   -0.8001    4.6807    2.3601 C   0  0  0  0  0  0  0  0  0  0  0  0
    0.0392    5.7649    2.9193 C   0  0  0  0  0  0  0  0  0  0  0  0
    0.0755    6.0491    4.2890 C   0  0  0  0  0  0  0  0  0  0  0  0
    0.8585    7.1105    4.7588 C   0  0  0  0  0  0  0  0  0  0  0  0
    1.5989    7.8836    3.8644 C   0  0  0  0  0  0  0  0  0  0  0  0
    1.5821    7.5971    2.5032 C   0  0  0  0  0  0  0  0  0  0  0  0
    0.8074    6.5373    2.0310 C   0  0  0  0  0  0  0  0  0  0  0  0
    2.5238    9.2124    4.4454 Cl  0  0  0  0  0  0  0  0  0  0  0  0
   -0.8365    5.1522    5.4517 Cl  0  0  0  0  0  0  0  0  0  0  0  0
   -3.8347   -0.1388   -0.6615 S   0  0  0  0  0  0  0  0  0  0  0  0
   -3.7369   -1.2324    0.2759 O   0  0  0  0  0  0  0  0  0  0  0  0
   -5.0715    0.6117   -0.7608 O   0  0  0  0  0  0  0  0  0  0  0  0
   -3.4697   -0.7318   -2.2970 C   0  0  0  0  0  0  0  0  0  0  0  0
   -3.9087    0.0347   -3.3925 C   0  0  0  0  0  0  0  0  0  0  0  0
   -3.5960   -0.3518   -4.6990 C   0  0  0  0  0  0  0  0  0  0  0  0
   -2.8569   -1.5103   -4.9299 C   0  0  0  0  0  0  0  0  0  0  0  0
   -2.4609   -2.3065   -3.8569 C   0  0  0  0  0  0  0  0  0  0  0  0
   -2.7936   -1.9234   -2.5478 C   0  0  0  0  0  0  0  0  0  0  0  0
   -2.4574   -2.8696   -1.5085 N   0  3  0  0  0  0  0  0  0  0  0  0
   -1.2963   -2.8432   -1.0875 O   0  0  0  0  0  0  0  0  0  0  0  0
   -3.3168   -3.7140   -1.2324 O   0  5  0  0  0  0  0  0  0  0  0  0
    2.1128   -1.4210    0.5051 H   0  0  0  0  0  0  0  0  0  0  0  0
    1.7393   -0.2242   -1.6312 H   0  0  0  0  0  0  0  0  0  0  0  0
   -0.3864    0.9279   -2.0583 H   0  0  0  0  0  0  0  0  0  0  0  0
   -1.7891   -0.2642    1.8561 H   0  0  0  0  0  0  0  0  0  0  0  0
    0.3550   -1.4149    2.2529 H   0  0  0  0  0  0  0  0  0  0  0  0
   -3.6874    2.6435   -1.1334 H   0  0  0  0  0  0  0  0  0  0  0  0
   -2.4342    2.0078   -2.2210 H   0  0  0  0  0  0  0  0  0  0  0  0
   -2.0923    2.8745    1.2428 H   0  0  0  0  0  0  0  0  0  0  0  0
   -1.2927    3.9768    3.0514 H   0  0  0  0  0  0  0  0  0  0  0  0
    0.8824    7.3433    5.8199 H   0  0  0  0  0  0  0  0  0  0  0  0
    2.1591    8.1939    1.8014 H   0  0  0  0  0  0  0  0  0  0  0  0
    0.8011    6.3239    0.9616 H   0  0  0  0  0  0  0  0  0  0  0  0
   -4.4967    0.9401   -3.2437 H   0  0  0  0  0  0  0  0  0  0  0  0
   -3.9291    0.2519   -5.5419 H   0  0  0  0  0  0  0  0  0  0  0  0
   -2.6164   -1.8089   -5.9478 H   0  0  0  0  0  0  0  0  0  0  0  0
   -1.9193   -3.2320   -4.0450 H   0  0  0  0  0  0  0  0  0  0  0  0
  1  2  2  0  0  0  0
  1  6  1  0  0  0  0
  1 34  1  0  0  0  0
  2  3  1  0  0  0  0
  2 35  1  0  0  0  0
  3  4  2  0  0  0  0
  3 36  1  0  0  0  0
  4  5  1  0  0  0  0
  4  7  1  0  0  0  0
  5  6  2  0  0  0  0
  5 37  1  0  0  0  0
  6 38  1  0  0  0  0
  7  8  1  0  0  0  0
  7 22  1  0  0  0  0
  8  9  1  0  0  0  0
  8 39  1  0  0  0  0
  8 40  1  0  0  0  0
  9 10  2  0  0  0  0
  9 11  1  0  0  0  0
 11 12  1  0  0  0  0
 11 41  1  0  0  0  0
 12 13  2  0  0  0  0
 13 14  1  0  0  0  0
 13 42  1  0  0  0  0
 14 15  2  0  0  0  0
 14 19  1  0  0  0  0
 15 16  1  0  0  0  0
 15 21  1  0  0  0  0
 16 17  2  0  0  0  0
 16 43  1  0  0  0  0
 17 18  1  0  0  0  0
 17 20  1  0  0  0  0
 18 19  2  0  0  0  0
 18 44  1  0  0  0  0
 19 45  1  0  0  0  0
 22 23  2  0  0  0  0
 22 24  2  0  0  0  0
 22 25  1  0  0  0  0
 25 26  2  0  0  0  0
 25 30  1  0  0  0  0
 26 27  1  0  0  0  0
 26 46  1  0  0  0  0
 27 28  2  0  0  0  0
 27 47  1  0  0  0  0
 28 29  1  0  0  0  0
 28 48  1  0  0  0  0
 29 30  2  0  0  0  0
 29 49  1  0  0  0  0
 30 31  1  0  0  0  0
 31 32  2  0  0  0  0
 31 33  1  0  0  0  0
M  CHG  2  31   1  33  -1
M  END
