
 OpenBabel10072620183D

 51 52  0  0  0  0  0  0  0  0999 V2000
    0.6236   -0.1344    1.3781 C   0  0  0  0  0  0  0  0  0  0  0  0
    2.0990    0.1560    1.1667 C   0  0  0  0  0  0  0  0  0  0  0  0
    2.7852   -1.0909    1.0970 O   0  0  0  0  0  0  0  0  0  0  0  0
    4.1576   -1.0529    1.1039 C   0  0  0  0  0  0  0  0  0  0  0  0
    4.8137   -2.2687    1.3691 C   0  0  0  0  0  0  0  0  0  0  0  0
    6.2144   -2.3147    1.3907 C   0  0  0  0  0  0  0  0  0  0  0  0
    6.9744   -1.1679    1.1117 C   0  0  0  0  0  0  0  0  0  0  0  0
    6.3094    0.0290    0.8223 C   0  0  0  0  0  0  0  0  0  0  0  0
    4.9135    0.0878    0.8224 C   0  0  0  0  0  0  0  0  0  0  0  0
    8.4824   -1.2341    1.0699 C   0  0  0  0  0  0  0  0  0  0  0  0
    9.1657   -0.3535    2.1186 C   0  0  0  0  0  0  0  0  0  0  0  0
   10.6134   -0.3774    1.9664 N   0  0  0  0  0  0  0  0  0  0  0  0
   11.3833    0.6316    2.5239 C   0  0  0  0  0  0  0  0  0  0  0  0
   10.8924    1.5833    3.1132 O   0  0  0  0  0  0  0  0  0  0  0  0
   12.7210    0.3907    2.2898 N   0  0  0  0  0  0  0  0  0  0  0  0
   13.8382    1.1180    2.7617 C   0  0  0  0  0  0  0  0  0  0  0  0
   13.7134    2.1665    3.6806 C   0  0  0  0  0  0  0  0  0  0  0  0
   14.8384    2.8554    4.1428 C   0  0  0  0  0  0  0  0  0  0  0  0
   16.1060    2.5005    3.6997 C   0  0  0  0  0  0  0  0  0  0  0  0
   16.2505    1.4553    2.7913 C   0  0  0  0  0  0  0  0  0  0  0  0
   15.1278    0.7576    2.3095 C   0  0  0  0  0  0  0  0  0  0  0  0
   15.3548   -0.3539    1.3205 C   0  0  0  0  0  0  0  0  0  0  0  0
    4.0046   -3.3486    1.6233 O   0  0  0  0  0  0  0  0  0  0  0  0
    4.5704   -4.6433    1.4415 C   0  0  0  0  0  0  0  0  0  0  0  0
    3.4328   -5.6501    1.4376 C   0  0  0  0  0  0  0  0  0  0  0  0
    0.0529    0.7932    1.4751 H   0  0  0  0  0  0  0  0  0  0  0  0
    0.4719   -0.7388    2.2786 H   0  0  0  0  0  0  0  0  0  0  0  0
    0.2207   -0.7086    0.5372 H   0  0  0  0  0  0  0  0  0  0  0  0
    2.4709    0.7533    2.0076 H   0  0  0  0  0  0  0  0  0  0  0  0
    2.2223    0.7081    0.2279 H   0  0  0  0  0  0  0  0  0  0  0  0
    6.7316   -3.2403    1.6214 H   0  0  0  0  0  0  0  0  0  0  0  0
    6.8719    0.9295    0.5805 H   0  0  0  0  0  0  0  0  0  0  0  0
    4.4458    1.0338    0.5722 H   0  0  0  0  0  0  0  0  0  0  0  0
    8.8110   -0.9430    0.0634 H   0  0  0  0  0  0  0  0  0  0  0  0
    8.8160   -2.2720    1.1995 H   0  0  0  0  0  0  0  0  0  0  0  0
    8.9342   -0.7042    3.1313 H   0  0  0  0  0  0  0  0  0  0  0  0
    8.8226    0.6842    2.0456 H   0  0  0  0  0  0  0  0  0  0  0  0
   11.0470   -1.2881    1.9936 H   0  0  0  0  0  0  0  0  0  0  0  0
   12.9018   -0.3190    1.5993 H   0  0  0  0  0  0  0  0  0  0  0  0
   12.7458    2.4768    4.0630 H   0  0  0  0  0  0  0  0  0  0  0  0
   14.7163    3.6704    4.8514 H   0  0  0  0  0  0  0  0  0  0  0  0
   16.9811    3.0333    4.0623 H   0  0  0  0  0  0  0  0  0  0  0  0
   17.2503    1.1880    2.4557 H   0  0  0  0  0  0  0  0  0  0  0  0
   16.4183   -0.4796    1.0904 H   0  0  0  0  0  0  0  0  0  0  0  0
   14.8411   -0.1328    0.3792 H   0  0  0  0  0  0  0  0  0  0  0  0
   14.9925   -1.3039    1.7265 H   0  0  0  0  0  0  0  0  0  0  0  0
    5.2506   -4.8692    2.2697 H   0  0  0  0  0  0  0  0  0  0  0  0
    5.1074   -4.7061    0.4875 H   0  0  0  0  0  0  0  0  0  0  0  0
    2.8634   -5.5936    2.3712 H   0  0  0  0  0  0  0  0  0  0  0  0
    3.8086   -6.6698    1.3150 H   0  0  0  0  0  0  0  0  0  0  0  0
    2.7309   -5.4337    0.6251 H   0  0  0  0  0  0  0  0  0  0  0  0
  1  2  1  0  0  0  0
  1 26  1  0  0  0  0
  1 27  1  0  0  0  0
  1 28  1  0  0  0  0
  2  3  1  0  0  0  0
  2 29  1  0  0  0  0
  2 30  1  0  0  0  0
  3  4  1  0  0  0  0
  4  5  2  0  0  0  0
  4  9  1  0  0  0  0
  5  6  1  0  0  0  0
  5 23  1  0  0  0  0
  6  7  2  0  0  0  0
  6 31  1  0  0  0  0
  7  8  1  0  0  0  0
  7 10  1  0  0  0  0
  8  9  2  0  0  0  0
  8 32  1  0  0  0  0
  9 33  1  0  0  0  0
 10 11  1  0  0  0  0
 10 34  1  0  0  0  0
 10 35  1  0  0  0  0
 11 12  1  0  0  0  0
 11 36  1  0  0  0  0
 11 37  1  0  0  0  0
 12 13  1  0  0  0  0
 12 38  1  0  0  0  0
 13 14  2  0  0  0  0
 13 15  1  0  0  0  0
 15 16  1  0  0  0  0
 15 39  1  0  0  0  0
 16 17  2  0  0  0  0
 16 21  1  0  0  0  0
 17 18  1  0  0  0  0
 17 40  1  0  0  0  0
 18 19  2  0  0  0  0
 18 41  1  0  0  0  0
 19 20  1  0  0  0  0
 19 42  1  0  0  0  0
 20 21  2  0  0  0  0
 20 43  1  0  0  0  0
 21 22  1  0  0  0  0
 22 44  1  0  0  0  0
 22 45  1  0  0  0  0
 22 46  1  0  0  0  0
 23 24  1  0  0  0  0
 24 25  1  0  0  0  0
 24 47  1  0  0  0  0
 24 48  1  0  0  0  0
 25 49  1  0  0  0  0
 25 50  1  0  0  0  0
 25 51  1  0  0  0  0
M  END
