
 OpenBabel10072620063D

 78 81  0  0  1  0  0  0  0  0999 V2000
    5.3716   -0.3010   -4.0692 C   0  0  0  0  0  0  0  0  0  0  0  0
    5.1671   -1.8103   -4.0269 C   0  0  0  0  0  0  0  0  0  0  0  0
    5.2703   -2.3521   -2.6216 C   0  0  0  0  0  0  0  0  0  0  0  0
    4.1306   -2.7038   -1.8819 C   0  0  0  0  0  0  0  0  0  0  0  0
    4.2580   -3.2178   -0.5853 C   0  0  0  0  0  0  0  0  0  0  0  0
    5.5270   -3.3845   -0.0270 C   0  0  0  0  0  0  0  0  0  0  0  0
    6.6612   -2.9827   -0.7361 C   0  0  0  0  0  0  0  0  0  0  0  0
    6.5351   -2.4865   -2.0322 C   0  0  0  0  0  0  0  0  0  0  0  0
    5.5850   -3.8925    1.2435 O   0  0  0  0  0  0  0  0  0  0  0  0
    6.5735   -4.9244    1.3941 C   0  0  0  0  0  0  0  0  0  0  0  0
    6.6739   -5.3337    2.8886 C   0  0  3  0  0  0  0  0  0  0  0  0
    7.5291   -4.3059    3.6458 C   0  0  0  0  0  0  0  0  0  0  0  0
    6.9856   -3.0899    4.0765 C   0  0  0  0  0  0  0  0  0  0  0  0
    7.8127   -2.1370    4.7049 C   0  0  0  0  0  0  0  0  0  0  0  0
    9.1532   -2.3984    5.0021 C   0  0  0  0  0  0  0  0  0  0  0  0
    9.7172   -3.5840    4.5500 C   0  0  0  0  0  0  0  0  0  0  0  0
    8.9091   -4.5167    3.8441 C   0  0  0  0  0  0  0  0  0  0  0  0
    9.5675   -5.6895    3.1924 C   0  0  0  0  0  0  0  0  0  0  0  0
    8.6692   -6.8784    2.8655 C   0  0  0  0  0  0  0  0  0  0  0  0
    7.2157   -6.7043    3.0013 N   0  0  0  0  0  0  0  0  0  0  0  0
    6.4926   -7.9036    2.9238 C   0  0  0  0  0  0  0  0  0  0  0  0
    7.0971   -8.9792    2.7950 O   0  0  0  0  0  0  0  0  0  0  0  0
    5.0064   -8.0458    3.0257 C   0  0  0  0  0  0  0  0  0  0  0  0
    4.0452   -7.3146    2.3139 C   0  0  0  0  0  0  0  0  0  0  0  0
    2.7008   -7.7535    2.2756 C   0  0  0  0  0  0  0  0  0  0  0  0
    2.3175   -8.9333    2.9287 C   0  0  0  0  0  0  0  0  0  0  0  0
    3.2513   -9.6270    3.6987 C   0  0  0  0  0  0  0  0  0  0  0  0
    4.5808   -9.1829    3.7450 C   0  0  0  0  0  0  0  0  0  0  0  0
    0.6116   -9.4858    2.9356 S   0  0  0  0  0  0  0  0  0  0  0  0
    0.4645  -10.4771    3.9678 O   0  0  0  0  0  0  0  0  0  0  0  0
   -0.2111   -8.2766    2.9648 O   0  0  0  0  0  0  0  0  0  0  0  0
    0.3260  -10.2617    1.4198 N   0  0  0  0  0  0  0  0  0  0  0  0
    1.2314  -11.3872    1.0436 C   0  0  0  0  0  0  0  0  0  0  0  0
    1.0469  -12.6674    1.8408 C   0  0  0  0  0  0  0  0  0  0  0  0
   -1.1390  -10.5468    1.2030 C   0  0  0  0  0  0  0  0  0  0  0  0
   -1.4623  -11.0223   -0.2099 C   0  0  0  0  0  0  0  0  0  0  0  0
    9.8182   -1.5064    5.8106 O   0  0  0  0  0  0  0  0  0  0  0  0
   11.0187   -0.9915    5.2418 C   0  0  0  0  0  0  0  0  0  0  0  0
    7.2418   -0.9260    4.9990 O   0  0  0  0  0  0  0  0  0  0  0  0
    7.7836    0.0846    4.1402 C   0  0  0  0  0  0  0  0  0  0  0  0
    5.4650    0.0332   -5.1075 H   0  0  0  0  0  0  0  0  0  0  0  0
    6.2818   -0.0019   -3.5360 H   0  0  0  0  0  0  0  0  0  0  0  0
    4.5288    0.2316   -3.6136 H   0  0  0  0  0  0  0  0  0  0  0  0
    5.9365   -2.2970   -4.6421 H   0  0  0  0  0  0  0  0  0  0  0  0
    4.1991   -2.0722   -4.4742 H   0  0  0  0  0  0  0  0  0  0  0  0
    3.1371   -2.5810   -2.3105 H   0  0  0  0  0  0  0  0  0  0  0  0
    3.3694   -3.4934   -0.0189 H   0  0  0  0  0  0  0  0  0  0  0  0
    7.6549   -3.0258   -0.3004 H   0  0  0  0  0  0  0  0  0  0  0  0
    7.4319   -2.1954   -2.5786 H   0  0  0  0  0  0  0  0  0  0  0  0
    7.5638   -4.6212    1.0254 H   0  0  0  0  0  0  0  0  0  0  0  0
    6.2514   -5.7778    0.7826 H   0  0  0  0  0  0  0  0  0  0  0  0
    5.6809   -5.3347    3.3632 H   0  0  0  0  0  0  0  0  0  0  0  0
    5.9372   -2.8457    3.9269 H   0  0  0  0  0  0  0  0  0  0  0  0
   10.7676   -3.8123    4.7397 H   0  0  0  0  0  0  0  0  0  0  0  0
   10.0232   -5.3303    2.2603 H   0  0  0  0  0  0  0  0  0  0  0  0
   10.3971   -6.0248    3.8194 H   0  0  0  0  0  0  0  0  0  0  0  0
    8.9887   -7.7349    3.4784 H   0  0  0  0  0  0  0  0  0  0  0  0
    8.8621   -7.1795    1.8285 H   0  0  0  0  0  0  0  0  0  0  0  0
    4.3126   -6.4373    1.7387 H   0  0  0  0  0  0  0  0  0  0  0  0
    1.9654   -7.1769    1.7101 H   0  0  0  0  0  0  0  0  0  0  0  0
    2.9788  -10.5205    4.2561 H   0  0  0  0  0  0  0  0  0  0  0  0
    5.3095   -9.7594    4.3111 H   0  0  0  0  0  0  0  0  0  0  0  0
    2.2720  -11.0558    1.1089 H   0  0  0  0  0  0  0  0  0  0  0  0
    1.0810  -11.6089   -0.0196 H   0  0  0  0  0  0  0  0  0  0  0  0
    1.3855  -12.5460    2.8720 H   0  0  0  0  0  0  0  0  0  0  0  0
    1.6520  -13.4651    1.3949 H   0  0  0  0  0  0  0  0  0  0  0  0
    0.0103  -13.0176    1.8583 H   0  0  0  0  0  0  0  0  0  0  0  0
   -1.7065   -9.6223    1.3632 H   0  0  0  0  0  0  0  0  0  0  0  0
   -1.4931  -11.2848    1.9319 H   0  0  0  0  0  0  0  0  0  0  0  0
   -0.9946  -10.3842   -0.9664 H   0  0  0  0  0  0  0  0  0  0  0  0
   -2.5462  -11.0078   -0.3745 H   0  0  0  0  0  0  0  0  0  0  0  0
   -1.1319  -12.0533   -0.3772 H   0  0  0  0  0  0  0  0  0  0  0  0
   11.8539   -1.6761    5.4277 H   0  0  0  0  0  0  0  0  0  0  0  0
   11.2347   -0.0326    5.7329 H   0  0  0  0  0  0  0  0  0  0  0  0
   10.9187   -0.7904    4.1684 H   0  0  0  0  0  0  0  0  0  0  0  0
    8.3705    0.7843    4.7452 H   0  0  0  0  0  0  0  0  0  0  0  0
    6.9378    0.6074    3.6854 H   0  0  0  0  0  0  0  0  0  0  0  0
    8.4229   -0.2871    3.3240 H   0  0  0  0  0  0  0  0  0  0  0  0
  1  2  1  0  0  0  0
  1 41  1  0  0  0  0
  1 42  1  0  0  0  0
  1 43  1  0  0  0  0
  2  3  1  0  0  0  0
  2 44  1  0  0  0  0
  2 45  1  0  0  0  0
  3  4  2  0  0  0  0
  3  8  1  0  0  0  0
  4  5  1  0  0  0  0
  4 46  1  0  0  0  0
  5  6  2  0  0  0  0
  5 47  1  0  0  0  0
  6  7  1  0  0  0  0
  6  9  1  0  0  0  0
  7  8  2  0  0  0  0
  7 48  1  0  0  0  0
  8 49  1  0  0  0  0
  9 10  1  0  0  0  0
 10 11  1  0  0  0  0
 10 50  1  0  0  0  0
 10 51  1  0  0  0  0
 11 12  1  0  0  0  0
 11 20  1  0  0  0  0
 11 52  1  0  0  0  0
 12 13  2  0  0  0  0
 12 17  1  0  0  0  0
 13 14  1  0  0  0  0
 13 53  1  0  0  0  0
 14 15  2  0  0  0  0
 14 39  1  0  0  0  0
 15 16  1  0  0  0  0
 15 37  1  0  0  0  0
 16 17  2  0  0  0  0
 16 54  1  0  0  0  0
 17 18  1  0  0  0  0
 18 19  1  0  0  0  0
 18 55  1  0  0  0  0
 18 56  1  0  0  0  0
 19 20  1  0  0  0  0
 19 57  1  0  0  0  0
 19 58  1  0  0  0  0
 20 21  1  0  0  0  0
 21 22  2  0  0  0  0
 21 23  1  0  0  0  0
 23 24  2  0  0  0  0
 23 28  1  0  0  0  0
 24 25  1  0  0  0  0
 24 59  1  0  0  0  0
 25 26  2  0  0  0  0
 25 60  1  0  0  0  0
 26 27  1  0  0  0  0
 26 29  1  0  0  0  0
 27 28  2  0  0  0  0
 27 61  1  0  0  0  0
 28 62  1  0  0  0  0
 29 30  2  0  0  0  0
 29 31  2  0  0  0  0
 29 32  1  0  0  0  0
 32 33  1  0  0  0  0
 32 35  1  0  0  0  0
 33 34  1  0  0  0  0
 33 63  1  0  0  0  0
 33 64  1  0  0  0  0
 34 65  1  0  0  0  0
 34 66  1  0  0  0  0
 34 67  1  0  0  0  0
 35 36  1  0  0  0  0
 35 68  1  0  0  0  0
 35 69  1  0  0  0  0
 36 70  1  0  0  0  0
 36 71  1  0  0  0  0
 36 72  1  0  0  0  0
 37 38  1  0  0  0  0
 38 73  1  0  0  0  0
 38 74  1  0  0  0  0
 38 75  1  0  0  0  0
 39 40  1  0  0  0  0
 40 76  1  0  0  0  0
 40 77  1  0  0  0  0
 40 78  1  0  0  0  0
M  END
