
 OpenBabel10072619573D

 39 41  0  0  0  0  0  0  0  0999 V2000
   -2.5466    0.8703    0.6503 C   0  0  0  0  0  0  0  0  0  0  0  0
   -1.1313    0.3817    0.5617 C   0  0  0  0  0  0  0  0  0  0  0  0
   -0.0534    1.2523    0.7565 C   0  0  0  0  0  0  0  0  0  0  0  0
    1.2623    0.7801    0.6814 C   0  0  0  0  0  0  0  0  0  0  0  0
    1.4939   -0.5776    0.4062 C   0  0  0  0  0  0  0  0  0  0  0  0
    0.4312   -1.4585    0.2001 C   0  0  0  0  0  0  0  0  0  0  0  0
   -0.8779   -0.9675    0.2711 C   0  0  0  0  0  0  0  0  0  0  0  0
    0.5898   -2.8255   -0.0915 N   0  0  0  0  0  0  0  0  0  0  0  0
    1.7316   -3.5717   -0.0953 C   0  0  0  0  0  0  0  0  0  0  0  0
    2.8573   -3.1820    0.2102 O   0  0  0  0  0  0  0  0  0  0  0  0
    1.6028   -4.8837   -0.4617 N   0  0  0  0  0  0  0  0  0  0  0  0
    0.4728   -5.5883   -0.8863 C   0  0  0  0  0  0  0  0  0  0  0  0
   -0.7259   -4.9685   -0.9607 N   0  0  0  0  0  0  0  0  0  0  0  0
   -1.7908   -5.6696   -1.4014 C   0  0  0  0  0  0  0  0  0  0  0  0
   -3.0303   -5.0495   -1.5004 C   0  0  0  0  0  0  0  0  0  0  0  0
   -4.1642   -5.7338   -1.9529 C   0  0  0  0  0  0  0  0  0  0  0  0
   -4.0668   -7.0718   -2.3168 C   0  0  0  0  0  0  0  0  0  0  0  0
   -2.8372   -7.7196   -2.2286 C   0  0  0  0  0  0  0  0  0  0  0  0
   -1.7011   -7.0265   -1.7737 C   0  0  0  0  0  0  0  0  0  0  0  0
   -0.4544   -7.6484   -1.6751 C   0  0  0  0  0  0  0  0  0  0  0  0
    0.6452   -6.9217   -1.2295 C   0  0  0  0  0  0  0  0  0  0  0  0
    2.4296    1.7051    0.8671 C   0  0  0  0  0  0  0  0  0  0  0  0
   -2.5927    1.9215    0.9540 H   0  0  0  0  0  0  0  0  0  0  0  0
   -3.0994    0.2846    1.3925 H   0  0  0  0  0  0  0  0  0  0  0  0
   -3.0385    0.7744   -0.3228 H   0  0  0  0  0  0  0  0  0  0  0  0
   -0.2361    2.3040    0.9693 H   0  0  0  0  0  0  0  0  0  0  0  0
    2.5224   -0.9208    0.3412 H   0  0  0  0  0  0  0  0  0  0  0  0
   -1.7176   -1.6401    0.1120 H   0  0  0  0  0  0  0  0  0  0  0  0
   -0.2483   -3.3612   -0.3037 H   0  0  0  0  0  0  0  0  0  0  0  0
    2.4854   -5.3721   -0.4295 H   0  0  0  0  0  0  0  0  0  0  0  0
   -3.1211   -4.0025   -1.2214 H   0  0  0  0  0  0  0  0  0  0  0  0
   -5.1196   -5.2190   -2.0181 H   0  0  0  0  0  0  0  0  0  0  0  0
   -4.9442   -7.6096   -2.6676 H   0  0  0  0  0  0  0  0  0  0  0  0
   -2.7683   -8.7663   -2.5166 H   0  0  0  0  0  0  0  0  0  0  0  0
   -0.3299   -8.6935   -1.9472 H   0  0  0  0  0  0  0  0  0  0  0  0
    1.6136   -7.4038   -1.1603 H   0  0  0  0  0  0  0  0  0  0  0  0
    2.1056    2.7112    1.1520 H   0  0  0  0  0  0  0  0  0  0  0  0
    2.9969    1.7847   -0.0660 H   0  0  0  0  0  0  0  0  0  0  0  0
    3.0885    1.3317    1.6577 H   0  0  0  0  0  0  0  0  0  0  0  0
  1  2  1  0  0  0  0
  1 23  1  0  0  0  0
  1 24  1  0  0  0  0
  1 25  1  0  0  0  0
  2  3  2  0  0  0  0
  2  7  1  0  0  0  0
  3  4  1  0  0  0  0
  3 26  1  0  0  0  0
  4  5  2  0  0  0  0
  4 22  1  0  0  0  0
  5  6  1  0  0  0  0
  5 27  1  0  0  0  0
  6  7  2  0  0  0  0
  6  8  1  0  0  0  0
  7 28  1  0  0  0  0
  8  9  1  0  0  0  0
  8 29  1  0  0  0  0
  9 10  2  0  0  0  0
  9 11  1  0  0  0  0
 11 12  1  0  0  0  0
 11 30  1  0  0  0  0
 12 13  2  0  0  0  0
 12 21  1  0  0  0  0
 13 14  1  0  0  0  0
 14 15  2  0  0  0  0
 14 19  1  0  0  0  0
 15 16  1  0  0  0  0
 15 31  1  0  0  0  0
 16 17  2  0  0  0  0
 16 32  1  0  0  0  0
 17 18  1  0  0  0  0
 17 33  1  0  0  0  0
 18 19  2  0  0  0  0
 18 34  1  0  0  0  0
 19 20  1  0  0  0  0
 20 21  2  0  0  0  0
 20 35  1  0  0  0  0
 21 36  1  0  0  0  0
 22 37  1  0  0  0  0
 22 38  1  0  0  0  0
 22 39  1  0  0  0  0
M  END
