
 OpenBabel10072619523D

 45 49  0  0  0  0  0  0  0  0999 V2000
   -4.3065   -1.5860    7.2382 C   0  0  0  0  0  0  0  0  0  0  0  0
   -3.7882   -0.3120    7.0232 C   0  0  0  0  0  0  0  0  0  0  0  0
   -3.6721    0.1834    5.7241 C   0  0  0  0  0  0  0  0  0  0  0  0
   -4.0688   -0.5926    4.6241 C   0  0  0  0  0  0  0  0  0  0  0  0
   -3.9520   -0.1063    3.3155 C   0  0  0  0  0  0  0  0  0  0  0  0
   -4.3491   -0.8988    2.2337 C   0  0  0  0  0  0  0  0  0  0  0  0
   -4.8526   -2.1823    2.4357 C   0  0  0  0  0  0  0  0  0  0  0  0
   -4.9767   -2.6722    3.7373 C   0  0  0  0  0  0  0  0  0  0  0  0
   -4.5921   -1.8897    4.8400 C   0  0  0  0  0  0  0  0  0  0  0  0
   -4.7088   -2.3692    6.1543 C   0  0  0  0  0  0  0  0  0  0  0  0
   -4.1848   -0.2472    0.5958 S   0  0  0  0  0  0  0  0  0  0  0  0
   -2.7901    0.0964    0.4213 O   0  0  0  0  0  0  0  0  0  0  0  0
   -4.8733   -1.1042   -0.3424 O   0  0  0  0  0  0  0  0  0  0  0  0
   -4.9944    1.2016    0.6871 N   0  0  0  0  0  0  0  0  0  0  0  0
   -6.4136    1.3193    0.3310 C   0  0  0  0  0  0  0  0  0  0  0  0
   -6.7474    2.7989    0.3086 C   0  0  0  0  0  0  0  0  0  0  0  0
   -6.3925    3.6122   -0.7785 C   0  0  0  0  0  0  0  0  0  0  0  0
   -6.6225    4.9876   -0.7286 C   0  0  0  0  0  0  0  0  0  0  0  0
   -7.1958    5.5605    0.4071 C   0  0  0  0  0  0  0  0  0  0  0  0
   -7.5438    4.7594    1.4947 C   0  0  0  0  0  0  0  0  0  0  0  0
   -7.3269    3.3833    1.4407 C   0  0  0  0  0  0  0  0  0  0  0  0
   -7.6949    2.6490    2.5450 O   0  0  0  0  0  0  0  0  0  0  0  0
   -7.9054    1.3024    2.3497 C   0  0  0  0  0  0  0  0  0  0  0  0
   -8.7356    0.6590    3.2686 C   0  0  0  0  0  0  0  0  0  0  0  0
   -9.0655   -0.6832    3.0864 C   0  0  0  0  0  0  0  0  0  0  0  0
   -8.5701   -1.3761    1.9836 C   0  0  0  0  0  0  0  0  0  0  0  0
   -7.7237   -0.7358    1.0761 C   0  0  0  0  0  0  0  0  0  0  0  0
   -7.3591    0.6054    1.2660 C   0  0  0  0  0  0  0  0  0  0  0  0
   -4.3988   -1.9706    8.2506 H   0  0  0  0  0  0  0  0  0  0  0  0
   -3.4709    0.2976    7.8653 H   0  0  0  0  0  0  0  0  0  0  0  0
   -3.2652    1.1813    5.5754 H   0  0  0  0  0  0  0  0  0  0  0  0
   -3.5505    0.8887    3.1360 H   0  0  0  0  0  0  0  0  0  0  0  0
   -5.1546   -2.8013    1.5952 H   0  0  0  0  0  0  0  0  0  0  0  0
   -5.3733   -3.6739    3.8881 H   0  0  0  0  0  0  0  0  0  0  0  0
   -5.1110   -3.3617    6.3446 H   0  0  0  0  0  0  0  0  0  0  0  0
   -4.4003    1.9934    0.4502 H   0  0  0  0  0  0  0  0  0  0  0  0
   -6.5703    0.9452   -0.6893 H   0  0  0  0  0  0  0  0  0  0  0  0
   -5.9247    3.1797   -1.6604 H   0  0  0  0  0  0  0  0  0  0  0  0
   -6.3476    5.6159   -1.5726 H   0  0  0  0  0  0  0  0  0  0  0  0
   -7.3703    6.6327    0.4463 H   0  0  0  0  0  0  0  0  0  0  0  0
   -7.9874    5.2055    2.3806 H   0  0  0  0  0  0  0  0  0  0  0  0
   -9.1413    1.2093    4.1129 H   0  0  0  0  0  0  0  0  0  0  0  0
   -9.7214   -1.1831    3.7942 H   0  0  0  0  0  0  0  0  0  0  0  0
   -8.8417   -2.4176    1.8289 H   0  0  0  0  0  0  0  0  0  0  0  0
   -7.3499   -1.2955    0.2210 H   0  0  0  0  0  0  0  0  0  0  0  0
  1  2  2  0  0  0  0
  1 10  1  0  0  0  0
  1 29  1  0  0  0  0
  2  3  1  0  0  0  0
  2 30  1  0  0  0  0
  3  4  2  0  0  0  0
  3 31  1  0  0  0  0
  4  5  1  0  0  0  0
  4  9  1  0  0  0  0
  5  6  2  0  0  0  0
  5 32  1  0  0  0  0
  6  7  1  0  0  0  0
  6 11  1  0  0  0  0
  7  8  2  0  0  0  0
  7 33  1  0  0  0  0
  8  9  1  0  0  0  0
  8 34  1  0  0  0  0
  9 10  2  0  0  0  0
 10 35  1  0  0  0  0
 11 12  2  0  0  0  0
 11 13  2  0  0  0  0
 11 14  1  0  0  0  0
 14 15  1  0  0  0  0
 14 36  1  0  0  0  0
 15 16  1  0  0  0  0
 15 28  1  0  0  0  0
 15 37  1  0  0  0  0
 16 17  2  0  0  0  0
 16 21  1  0  0  0  0
 17 18  1  0  0  0  0
 17 38  1  0  0  0  0
 18 19  2  0  0  0  0
 18 39  1  0  0  0  0
 19 20  1  0  0  0  0
 19 40  1  0  0  0  0
 20 21  2  0  0  0  0
 20 41  1  0  0  0  0
 21 22  1  0  0  0  0
 22 23  1  0  0  0  0
 23 24  2  0  0  0  0
 23 28  1  0  0  0  0
 24 25  1  0  0  0  0
 24 42  1  0  0  0  0
 25 26  2  0  0  0  0
 25 43  1  0  0  0  0
 26 27  1  0  0  0  0
 26 44  1  0  0  0  0
 27 28  2  0  0  0  0
 27 45  1  0  0  0  0
M  END
