
 OpenBabel10072616433D

 63 68  0  0  0  0  0  0  0  0999 V2000
    5.6493   -2.1189    0.4255 C   0  0  0  0  0  0  0  0  0  0  0  0
    4.7209   -0.9378    0.2649 C   0  0  0  0  0  0  0  0  0  0  0  0
    5.2938    0.3471    0.3289 C   0  0  0  0  0  0  0  0  0  0  0  0
    4.5507    1.5034    0.0963 C   0  0  0  0  0  0  0  0  0  0  0  0
    3.1886    1.3203   -0.1243 C   0  0  0  0  0  0  0  0  0  0  0  0
    2.5915    0.0479   -0.0992 C   0  0  0  0  0  0  0  0  0  0  0  0
    3.3722   -1.0725    0.0485 N   0  3  0  0  0  0  0  0  0  0  0  0
    2.7663   -2.3894   -0.0297 C   0  0  0  0  0  0  0  0  0  0  0  0
    2.9135   -3.2781    1.0346 C   0  0  0  0  0  0  0  0  0  0  0  0
    2.3149   -4.5413    0.9442 C   0  0  0  0  0  0  0  0  0  0  0  0
    1.5125   -4.8765   -0.1517 C   0  0  0  0  0  0  0  0  0  0  0  0
    1.3902   -3.9810   -1.2166 C   0  0  0  0  0  0  0  0  0  0  0  0
    2.0362   -2.7423   -1.1710 C   0  0  0  0  0  0  0  0  0  0  0  0
    2.5220   -5.6993    2.2863 S   0  0  0  0  0  0  0  0  0  0  0  0
    3.2661   -4.9889    3.3065 O   0  0  0  0  0  0  0  0  0  0  0  0
    1.2242   -6.2713    2.5533 O   0  0  0  0  0  0  0  0  0  0  0  0
    3.5754   -6.8396    1.6558 N   0  0  0  0  0  0  0  0  0  0  0  0
    3.2105   -7.6960    0.5859 C   0  0  0  0  0  0  0  0  0  0  0  0
    3.8224   -7.5199   -0.6554 C   0  0  0  0  0  0  0  0  0  0  0  0
    3.4650   -8.3199   -1.7519 C   0  0  0  0  0  0  0  0  0  0  0  0
    2.5138   -9.3244   -1.5785 C   0  0  0  0  0  0  0  0  0  0  0  0
    1.9154   -9.5093   -0.3235 C   0  0  0  0  0  0  0  0  0  0  0  0
    2.2561   -8.6926    0.7568 C   0  0  0  0  0  0  0  0  0  0  0  0
    2.0672  -10.1900   -2.5436 O   0  0  0  0  0  0  0  0  0  0  0  0
    2.5687  -10.1619   -3.8200 C   0  0  0  0  0  0  0  0  0  0  0  0
    2.0407  -11.1471   -4.6683 C   0  0  0  0  0  0  0  0  0  0  0  0
    2.4316  -11.2174   -6.0053 C   0  0  0  0  0  0  0  0  0  0  0  0
    3.3622  -10.3121   -6.4997 C   0  0  0  0  0  0  0  0  0  0  0  0
    3.9024   -9.3424   -5.6527 C   0  0  0  0  0  0  0  0  0  0  0  0
    3.5101   -9.2566   -4.3087 C   0  0  0  0  0  0  0  0  0  0  0  0
    4.2410   -7.9890   -3.3082 S   0  0  0  0  0  0  0  0  0  0  0  0
    1.0842   -0.0060   -0.1932 C   0  0  0  0  0  0  0  0  0  0  0  0
    5.1707    2.8464    0.0783 C   0  0  0  0  0  0  0  0  0  0  0  0
    6.4674    3.0464   -0.4333 C   0  0  0  0  0  0  0  0  0  0  0  0
    7.0522    4.3162   -0.4672 C   0  0  0  0  0  0  0  0  0  0  0  0
    6.3546    5.4201    0.0101 C   0  0  0  0  0  0  0  0  0  0  0  0
    5.0704    5.2536    0.5179 C   0  0  0  0  0  0  0  0  0  0  0  0
    4.4875    3.9825    0.5529 C   0  0  0  0  0  0  0  0  0  0  0  0
    6.6758   -1.8506    0.1515 H   0  0  0  0  0  0  0  0  0  0  0  0
    5.3634   -2.9492   -0.2261 H   0  0  0  0  0  0  0  0  0  0  0  0
    5.6605   -2.4461    1.4696 H   0  0  0  0  0  0  0  0  0  0  0  0
    6.3591    0.4320    0.5483 H   0  0  0  0  0  0  0  0  0  0  0  0
    2.5531    2.1887   -0.3061 H   0  0  0  0  0  0  0  0  0  0  0  0
    3.4587   -2.9948    1.9315 H   0  0  0  0  0  0  0  0  0  0  0  0
    0.9817   -5.8299   -0.1839 H   0  0  0  0  0  0  0  0  0  0  0  0
    0.7919   -4.2556   -2.0856 H   0  0  0  0  0  0  0  0  0  0  0  0
    1.9541   -2.0771   -2.0278 H   0  0  0  0  0  0  0  0  0  0  0  0
    4.5565   -6.7395    1.9127 H   0  0  0  0  0  0  0  0  0  0  0  0
    4.5742   -6.7448   -0.7722 H   0  0  0  0  0  0  0  0  0  0  0  0
    1.1825  -10.3040   -0.1884 H   0  0  0  0  0  0  0  0  0  0  0  0
    1.7871   -8.8606    1.7245 H   0  0  0  0  0  0  0  0  0  0  0  0
    1.3168  -11.8660   -4.2894 H   0  0  0  0  0  0  0  0  0  0  0  0
    2.0107  -11.9775   -6.6588 H   0  0  0  0  0  0  0  0  0  0  0  0
    3.6700  -10.3598   -7.5421 H   0  0  0  0  0  0  0  0  0  0  0  0
    4.6350   -8.6486   -6.0568 H   0  0  0  0  0  0  0  0  0  0  0  0
    0.6457    0.9399    0.1460 H   0  0  0  0  0  0  0  0  0  0  0  0
    0.6659   -0.7862    0.4496 H   0  0  0  0  0  0  0  0  0  0  0  0
    0.7698   -0.1591   -1.2290 H   0  0  0  0  0  0  0  0  0  0  0  0
    7.0466    2.2180   -0.8354 H   0  0  0  0  0  0  0  0  0  0  0  0
    8.0532    4.4445   -0.8742 H   0  0  0  0  0  0  0  0  0  0  0  0
    6.8083    6.4081   -0.0179 H   0  0  0  0  0  0  0  0  0  0  0  0
    4.5208    6.1162    0.8889 H   0  0  0  0  0  0  0  0  0  0  0  0
    3.4856    3.9037    0.9700 H   0  0  0  0  0  0  0  0  0  0  0  0
  1  2  1  0  0  0  0
  1 39  1  0  0  0  0
  1 40  1  0  0  0  0
  1 41  1  0  0  0  0
  2  3  2  0  0  0  0
  2  7  1  0  0  0  0
  3  4  1  0  0  0  0
  3 42  1  0  0  0  0
  4  5  2  0  0  0  0
  4 33  1  0  0  0  0
  5  6  1  0  0  0  0
  5 43  1  0  0  0  0
  6  7  2  0  0  0  0
  6 32  1  0  0  0  0
  7  8  1  0  0  0  0
  8  9  2  0  0  0  0
  8 13  1  0  0  0  0
  9 10  1  0  0  0  0
  9 44  1  0  0  0  0
 10 11  2  0  0  0  0
 10 14  1  0  0  0  0
 11 12  1  0  0  0  0
 11 45  1  0  0  0  0
 12 13  2  0  0  0  0
 12 46  1  0  0  0  0
 13 47  1  0  0  0  0
 14 15  2  0  0  0  0
 14 16  2  0  0  0  0
 14 17  1  0  0  0  0
 17 18  1  0  0  0  0
 17 48  1  0  0  0  0
 18 19  2  0  0  0  0
 18 23  1  0  0  0  0
 19 20  1  0  0  0  0
 19 49  1  0  0  0  0
 20 21  2  0  0  0  0
 20 31  1  0  0  0  0
 21 22  1  0  0  0  0
 21 24  1  0  0  0  0
 22 23  2  0  0  0  0
 22 50  1  0  0  0  0
 23 51  1  0  0  0  0
 24 25  1  0  0  0  0
 25 26  2  0  0  0  0
 25 30  1  0  0  0  0
 26 27  1  0  0  0  0
 26 52  1  0  0  0  0
 27 28  2  0  0  0  0
 27 53  1  0  0  0  0
 28 29  1  0  0  0  0
 28 54  1  0  0  0  0
 29 30  2  0  0  0  0
 29 55  1  0  0  0  0
 30 31  1  0  0  0  0
 32 56  1  0  0  0  0
 32 57  1  0  0  0  0
 32 58  1  0  0  0  0
 33 34  2  0  0  0  0
 33 38  1  0  0  0  0
 34 35  1  0  0  0  0
 34 59  1  0  0  0  0
 35 36  2  0  0  0  0
 35 60  1  0  0  0  0
 36 37  1  0  0  0  0
 36 61  1  0  0  0  0
 37 38  2  0  0  0  0
 37 62  1  0  0  0  0
 38 63  1  0  0  0  0
M  CHG  1   7   1
M  END
