
 OpenBabel10072620103D

 33 34  0  0  0  0  0  0  0  0999 V2000
   -4.7499    1.1309    3.8633 C   0  0  0  0  0  0  0  0  0  0  0  0
   -3.7047    0.2166    3.7508 C   0  0  0  0  0  0  0  0  0  0  0  0
   -3.1739   -0.0899    2.4972 C   0  0  0  0  0  0  0  0  0  0  0  0
   -3.6880    0.5122    1.3407 C   0  0  0  0  0  0  0  0  0  0  0  0
   -4.7411    1.4282    1.4659 C   0  0  0  0  0  0  0  0  0  0  0  0
   -5.2713    1.7330    2.7207 C   0  0  0  0  0  0  0  0  0  0  0  0
   -3.1061    0.1914   -0.0158 C   0  0  0  0  0  0  0  0  0  0  0  0
   -3.5240   -1.1748   -0.5699 C   0  0  0  0  0  0  0  0  0  0  0  0
   -4.9254   -1.1545   -1.0076 N   0  0  0  0  0  0  0  0  0  0  0  0
   -5.6945   -2.6175   -1.3321 S   0  0  0  0  0  0  0  0  0  0  0  0
   -6.8454   -2.3068   -2.1505 O   0  0  0  0  0  0  0  0  0  0  0  0
   -4.6475   -3.4900   -1.8148 O   0  0  0  0  0  0  0  0  0  0  0  0
   -6.2972   -3.1444    0.2418 C   0  0  0  0  0  0  0  0  0  0  0  0
   -6.9860   -2.2353    1.0631 C   0  0  0  0  0  0  0  0  0  0  0  0
   -7.3706   -2.6018    2.3606 C   0  0  0  0  0  0  0  0  0  0  0  0
   -7.1205   -3.8819    2.8358 C   0  0  0  0  0  0  0  0  0  0  0  0
   -6.5125   -4.8098    1.9982 C   0  0  0  0  0  0  0  0  0  0  0  0
   -6.1032   -4.4544    0.7026 C   0  0  0  0  0  0  0  0  0  0  0  0
   -5.4636   -5.7588   -0.2333 Cl  0  0  0  0  0  0  0  0  0  0  0  0
   -7.5099   -0.6616    0.5635 Cl  0  0  0  0  0  0  0  0  0  0  0  0
   -5.1519    1.3798    4.8417 H   0  0  0  0  0  0  0  0  0  0  0  0
   -3.2953   -0.2511    4.6426 H   0  0  0  0  0  0  0  0  0  0  0  0
   -2.3450   -0.7913    2.4319 H   0  0  0  0  0  0  0  0  0  0  0  0
   -5.1591    1.9108    0.5856 H   0  0  0  0  0  0  0  0  0  0  0  0
   -6.0904    2.4428    2.8040 H   0  0  0  0  0  0  0  0  0  0  0  0
   -2.0123    0.2234    0.0692 H   0  0  0  0  0  0  0  0  0  0  0  0
   -3.3728    0.9804   -0.7298 H   0  0  0  0  0  0  0  0  0  0  0  0
   -3.3658   -1.9572    0.1794 H   0  0  0  0  0  0  0  0  0  0  0  0
   -2.9013   -1.3980   -1.4440 H   0  0  0  0  0  0  0  0  0  0  0  0
   -5.2336   -0.4099   -1.6328 H   0  0  0  0  0  0  0  0  0  0  0  0
   -7.8866   -1.8895    3.0029 H   0  0  0  0  0  0  0  0  0  0  0  0
   -7.4255   -4.1615    3.8418 H   0  0  0  0  0  0  0  0  0  0  0  0
   -6.3661   -5.8277    2.3578 H   0  0  0  0  0  0  0  0  0  0  0  0
  1  2  2  0  0  0  0
  1  6  1  0  0  0  0
  1 21  1  0  0  0  0
  2  3  1  0  0  0  0
  2 22  1  0  0  0  0
  3  4  2  0  0  0  0
  3 23  1  0  0  0  0
  4  5  1  0  0  0  0
  4  7  1  0  0  0  0
  5  6  2  0  0  0  0
  5 24  1  0  0  0  0
  6 25  1  0  0  0  0
  7  8  1  0  0  0  0
  7 26  1  0  0  0  0
  7 27  1  0  0  0  0
  8  9  1  0  0  0  0
  8 28  1  0  0  0  0
  8 29  1  0  0  0  0
  9 10  1  0  0  0  0
  9 30  1  0  0  0  0
 10 11  2  0  0  0  0
 10 12  2  0  0  0  0
 10 13  1  0  0  0  0
 13 14  2  0  0  0  0
 13 18  1  0  0  0  0
 14 15  1  0  0  0  0
 14 20  1  0  0  0  0
 15 16  2  0  0  0  0
 15 31  1  0  0  0  0
 16 17  1  0  0  0  0
 16 32  1  0  0  0  0
 17 18  2  0  0  0  0
 17 33  1  0  0  0  0
 18 19  1  0  0  0  0
M  END
