
 OpenBabel10072616343D

 59 62  0  0  0  0  0  0  0  0999 V2000
    4.5821   -2.6295   -1.9000 C   0  0  0  0  0  0  0  0  0  0  0  0
    4.3624   -1.6902   -0.7275 C   0  0  0  0  0  0  0  0  0  0  0  0
    5.6045   -0.9506   -0.3690 N   0  0  0  0  0  0  0  0  0  0  0  0
    6.1319   -0.0294   -1.4168 C   0  0  0  0  0  0  0  0  0  0  0  0
    5.2084    1.1316   -1.7404 C   0  0  0  0  0  0  0  0  0  0  0  0
    5.6235   -0.3058    1.2167 S   0  0  0  0  0  0  0  0  0  0  0  0
    6.8834    0.3743    1.4295 O   0  0  0  0  0  0  0  0  0  0  0  0
    4.3625    0.3720    1.4327 O   0  0  0  0  0  0  0  0  0  0  0  0
    5.6522   -1.7673    2.2315 C   0  0  0  0  0  0  0  0  0  0  0  0
    6.8090   -2.5553    2.2508 C   0  0  0  0  0  0  0  0  0  0  0  0
    6.8744   -3.6609    3.1006 C   0  0  0  0  0  0  0  0  0  0  0  0
    5.7925   -3.9492    3.9414 C   0  0  0  0  0  0  0  0  0  0  0  0
    4.6179   -3.1881    3.8840 C   0  0  0  0  0  0  0  0  0  0  0  0
    4.5517   -2.0835    3.0346 C   0  0  0  0  0  0  0  0  0  0  0  0
    5.8958   -5.3133    5.0921 S   0  0  0  0  0  0  0  0  0  0  0  0
    4.5419   -5.7497    5.3623 O   0  0  0  0  0  0  0  0  0  0  0  0
    6.8884   -6.2367    4.5822 O   0  0  0  0  0  0  0  0  0  0  0  0
    6.5187   -4.5834    6.5193 N   0  0  0  0  0  0  0  0  0  0  0  0
    7.9322   -4.1308    6.4178 C   0  0  0  0  0  0  0  0  0  0  0  0
    8.4687   -3.6667    7.7717 C   0  0  0  0  0  0  0  0  0  0  0  0
    7.5583   -2.6499    8.4715 C   0  0  0  0  0  0  0  0  0  0  0  0
    6.1358   -3.2145    8.5396 C   0  0  0  0  0  0  0  0  0  0  0  0
    5.6145   -3.5919    7.1568 C   0  0  0  0  0  0  0  0  0  0  0  0
    7.5763   -1.2950    7.7973 C   0  0  0  0  0  0  0  0  0  0  0  0
    7.6891   -1.1127    6.4999 N   0  0  0  0  0  0  0  0  0  0  0  0
    7.6066    0.2330    6.1909 C   0  0  0  0  0  0  0  0  0  0  0  0
    7.6827    0.7892    4.8991 C   0  0  0  0  0  0  0  0  0  0  0  0
    7.5602    2.1715    4.7308 C   0  0  0  0  0  0  0  0  0  0  0  0
    7.3713    3.0010    5.8315 C   0  0  0  0  0  0  0  0  0  0  0  0
    7.3036    2.4722    7.1250 C   0  0  0  0  0  0  0  0  0  0  0  0
    7.4240    1.0819    7.2828 C   0  0  0  0  0  0  0  0  0  0  0  0
    7.3815    0.1391    8.7242 S   0  0  0  0  0  0  0  0  0  0  0  0
    3.7026   -3.2658   -2.0385 H   0  0  0  0  0  0  0  0  0  0  0  0
    5.4490   -3.2764   -1.7360 H   0  0  0  0  0  0  0  0  0  0  0  0
    4.7372   -2.0812   -2.8331 H   0  0  0  0  0  0  0  0  0  0  0  0
    4.0450   -2.3068    0.1187 H   0  0  0  0  0  0  0  0  0  0  0  0
    3.5446   -0.9971   -0.9428 H   0  0  0  0  0  0  0  0  0  0  0  0
    6.3414   -0.5992   -2.3274 H   0  0  0  0  0  0  0  0  0  0  0  0
    7.1078    0.3554   -1.0995 H   0  0  0  0  0  0  0  0  0  0  0  0
    4.2494    0.7881   -2.1377 H   0  0  0  0  0  0  0  0  0  0  0  0
    5.6681    1.7705   -2.5017 H   0  0  0  0  0  0  0  0  0  0  0  0
    5.0106    1.7524   -0.8623 H   0  0  0  0  0  0  0  0  0  0  0  0
    7.6584   -2.3009    1.6198 H   0  0  0  0  0  0  0  0  0  0  0  0
    7.7748   -4.2715    3.1245 H   0  0  0  0  0  0  0  0  0  0  0  0
    3.7670   -3.4317    4.5169 H   0  0  0  0  0  0  0  0  0  0  0  0
    3.6515   -1.4727    3.0127 H   0  0  0  0  0  0  0  0  0  0  0  0
    8.0260   -3.3406    5.6714 H   0  0  0  0  0  0  0  0  0  0  0  0
    8.5566   -4.9681    6.0864 H   0  0  0  0  0  0  0  0  0  0  0  0
    9.4787   -3.2580    7.6437 H   0  0  0  0  0  0  0  0  0  0  0  0
    8.5666   -4.5455    8.4236 H   0  0  0  0  0  0  0  0  0  0  0  0
    7.9315   -2.5279    9.4980 H   0  0  0  0  0  0  0  0  0  0  0  0
    5.4522   -2.4947    9.0060 H   0  0  0  0  0  0  0  0  0  0  0  0
    6.1397   -4.1093    9.1764 H   0  0  0  0  0  0  0  0  0  0  0  0
    5.5170   -2.7008    6.5305 H   0  0  0  0  0  0  0  0  0  0  0  0
    4.6164   -4.0256    7.2800 H   0  0  0  0  0  0  0  0  0  0  0  0
    7.8340    0.1432    4.0397 H   0  0  0  0  0  0  0  0  0  0  0  0
    7.6099    2.5927    3.7286 H   0  0  0  0  0  0  0  0  0  0  0  0
    7.2747    4.0750    5.6846 H   0  0  0  0  0  0  0  0  0  0  0  0
    7.1571    3.1209    7.9823 H   0  0  0  0  0  0  0  0  0  0  0  0
  1  2  1  0  0  0  0
  1 33  1  0  0  0  0
  1 34  1  0  0  0  0
  1 35  1  0  0  0  0
  2  3  1  0  0  0  0
  2 36  1  0  0  0  0
  2 37  1  0  0  0  0
  3  4  1  0  0  0  0
  3  6  1  0  0  0  0
  4  5  1  0  0  0  0
  4 38  1  0  0  0  0
  4 39  1  0  0  0  0
  5 40  1  0  0  0  0
  5 41  1  0  0  0  0
  5 42  1  0  0  0  0
  6  7  2  0  0  0  0
  6  8  2  0  0  0  0
  6  9  1  0  0  0  0
  9 10  2  0  0  0  0
  9 14  1  0  0  0  0
 10 11  1  0  0  0  0
 10 43  1  0  0  0  0
 11 12  2  0  0  0  0
 11 44  1  0  0  0  0
 12 13  1  0  0  0  0
 12 15  1  0  0  0  0
 13 14  2  0  0  0  0
 13 45  1  0  0  0  0
 14 46  1  0  0  0  0
 15 16  2  0  0  0  0
 15 17  2  0  0  0  0
 15 18  1  0  0  0  0
 18 19  1  0  0  0  0
 18 23  1  0  0  0  0
 19 20  1  0  0  0  0
 19 47  1  0  0  0  0
 19 48  1  0  0  0  0
 20 21  1  0  0  0  0
 20 49  1  0  0  0  0
 20 50  1  0  0  0  0
 21 22  1  0  0  0  0
 21 24  1  0  0  0  0
 21 51  1  0  0  0  0
 22 23  1  0  0  0  0
 22 52  1  0  0  0  0
 22 53  1  0  0  0  0
 23 54  1  0  0  0  0
 23 55  1  0  0  0  0
 24 25  2  0  0  0  0
 24 32  1  0  0  0  0
 25 26  1  0  0  0  0
 26 27  2  0  0  0  0
 26 31  1  0  0  0  0
 27 28  1  0  0  0  0
 27 56  1  0  0  0  0
 28 29  2  0  0  0  0
 28 57  1  0  0  0  0
 29 30  1  0  0  0  0
 29 58  1  0  0  0  0
 30 31  2  0  0  0  0
 30 59  1  0  0  0  0
 31 32  1  0  0  0  0
M  END
