
 OpenBabel10072619543D

 61 65  0  0  0  0  0  0  0  0999 V2000
   -5.5715   -5.1754   -1.4837 C   0  0  0  0  0  0  0  0  0  0  0  0
   -5.0677   -3.7808   -1.2604 C   0  0  0  0  0  0  0  0  0  0  0  0
   -3.8343   -3.3733   -1.7738 C   0  0  0  0  0  0  0  0  0  0  0  0
   -3.3712   -2.0717   -1.5498 C   0  0  0  0  0  0  0  0  0  0  0  0
   -4.1326   -1.1419   -0.8256 C   0  0  0  0  0  0  0  0  0  0  0  0
   -5.3332   -1.5813   -0.2604 C   0  0  0  0  0  0  0  0  0  0  0  0
   -5.8017   -2.8823   -0.4813 C   0  0  0  0  0  0  0  0  0  0  0  0
   -3.5994    0.1460   -0.5915 N   0  0  0  0  0  0  0  0  0  0  0  0
   -4.3084    1.3618   -0.3684 C   0  0  0  0  0  0  0  0  0  0  0  0
   -5.6406    1.4257   -0.5730 N   0  0  0  0  0  0  0  0  0  0  0  0
   -6.3198    2.6069   -0.4450 N   0  0  0  0  0  0  0  0  0  0  0  0
   -5.6644    3.7409   -0.1119 C   0  0  0  0  0  0  0  0  0  0  0  0
   -4.2736    3.7465    0.1223 C   0  0  0  0  0  0  0  0  0  0  0  0
   -3.5249    4.9111    0.4379 C   0  0  0  0  0  0  0  0  0  0  0  0
   -2.1563    4.8603    0.7016 C   0  0  0  0  0  0  0  0  0  0  0  0
   -1.4929    3.6460    0.6474 C   0  0  0  0  0  0  0  0  0  0  0  0
   -2.1947    2.4923    0.3022 C   0  0  0  0  0  0  0  0  0  0  0  0
   -3.5843    2.5144    0.0177 C   0  0  0  0  0  0  0  0  0  0  0  0
   -6.5392    4.9248   -0.0283 C   0  0  0  0  0  0  0  0  0  0  0  0
   -7.3243    5.3128   -1.1249 C   0  0  0  0  0  0  0  0  0  0  0  0
   -8.1597    6.4477   -1.0703 C   0  0  0  0  0  0  0  0  0  0  0  0
   -8.2019    7.2453    0.0881 C   0  0  0  0  0  0  0  0  0  0  0  0
   -7.4405    6.8336    1.1947 C   0  0  0  0  0  0  0  0  0  0  0  0
   -6.6379    5.6887    1.1414 C   0  0  0  0  0  0  0  0  0  0  0  0
   -8.9877    8.5210    0.2116 C   0  0  0  0  0  0  0  0  0  0  0  0
   -9.0973    6.8019   -2.5546 S   0  0  0  0  0  0  0  0  0  0  0  0
   -9.5521    8.1731   -2.5333 O   0  0  0  0  0  0  0  0  0  0  0  0
   -8.3374    6.2878   -3.6736 O   0  0  0  0  0  0  0  0  0  0  0  0
  -10.4398    5.8065   -2.3969 N   0  0  0  0  0  0  0  0  0  0  0  0
  -11.3790    6.1025   -1.3058 C   0  0  0  0  0  0  0  0  0  0  0  0
  -12.5908    5.1944   -1.3243 C   0  0  0  0  0  0  0  0  0  0  0  0
  -13.4788    5.2265   -2.3984 C   0  0  0  0  0  0  0  0  0  0  0  0
  -14.5810    4.3757   -2.3852 C   0  0  0  0  0  0  0  0  0  0  0  0
  -14.7680    3.5191   -1.3067 C   0  0  0  0  0  0  0  0  0  0  0  0
  -13.8374    3.5461   -0.2822 C   0  0  0  0  0  0  0  0  0  0  0  0
  -12.7569    4.3578   -0.2679 N   0  0  0  0  0  0  0  0  0  0  0  0
   -5.1540   -5.6046   -2.4007 H   0  0  0  0  0  0  0  0  0  0  0  0
   -6.6615   -5.1785   -1.5928 H   0  0  0  0  0  0  0  0  0  0  0  0
   -5.2964   -5.8140   -0.6390 H   0  0  0  0  0  0  0  0  0  0  0  0
   -3.2236   -4.0620   -2.3528 H   0  0  0  0  0  0  0  0  0  0  0  0
   -2.4054   -1.7917   -1.9616 H   0  0  0  0  0  0  0  0  0  0  0  0
   -5.9243   -0.9161    0.3631 H   0  0  0  0  0  0  0  0  0  0  0  0
   -6.7472   -3.1869   -0.0371 H   0  0  0  0  0  0  0  0  0  0  0  0
   -2.8460    0.3421   -1.2442 H   0  0  0  0  0  0  0  0  0  0  0  0
   -4.0052    5.8870    0.4812 H   0  0  0  0  0  0  0  0  0  0  0  0
   -1.6136    5.7685    0.9510 H   0  0  0  0  0  0  0  0  0  0  0  0
   -0.4302    3.5905    0.8689 H   0  0  0  0  0  0  0  0  0  0  0  0
   -1.6403    1.5555    0.2755 H   0  0  0  0  0  0  0  0  0  0  0  0
   -7.2747    4.7202   -2.0403 H   0  0  0  0  0  0  0  0  0  0  0  0
   -7.4604    7.4061    2.1214 H   0  0  0  0  0  0  0  0  0  0  0  0
   -6.0744    5.4021    2.0282 H   0  0  0  0  0  0  0  0  0  0  0  0
  -10.0460    8.3580   -0.0059 H   0  0  0  0  0  0  0  0  0  0  0  0
   -8.5744    9.2851   -0.4538 H   0  0  0  0  0  0  0  0  0  0  0  0
   -8.9387    8.9262    1.2292 H   0  0  0  0  0  0  0  0  0  0  0  0
  -10.2203    4.8179   -2.5250 H   0  0  0  0  0  0  0  0  0  0  0  0
  -11.7290    7.1385   -1.3728 H   0  0  0  0  0  0  0  0  0  0  0  0
  -10.8760    5.9719   -0.3421 H   0  0  0  0  0  0  0  0  0  0  0  0
  -13.3117    5.8975   -3.2361 H   0  0  0  0  0  0  0  0  0  0  0  0
  -15.2846    4.3777   -3.2132 H   0  0  0  0  0  0  0  0  0  0  0  0
  -15.6164    2.8450   -1.2663 H   0  0  0  0  0  0  0  0  0  0  0  0
  -13.9387    2.8953    0.5822 H   0  0  0  0  0  0  0  0  0  0  0  0
  1  2  1  0  0  0  0
  1 37  1  0  0  0  0
  1 38  1  0  0  0  0
  1 39  1  0  0  0  0
  2  3  2  0  0  0  0
  2  7  1  0  0  0  0
  3  4  1  0  0  0  0
  3 40  1  0  0  0  0
  4  5  2  0  0  0  0
  4 41  1  0  0  0  0
  5  6  1  0  0  0  0
  5  8  1  0  0  0  0
  6  7  2  0  0  0  0
  6 42  1  0  0  0  0
  7 43  1  0  0  0  0
  8  9  1  0  0  0  0
  8 44  1  0  0  0  0
  9 10  2  0  0  0  0
  9 18  1  0  0  0  0
 10 11  1  0  0  0  0
 11 12  2  0  0  0  0
 12 13  1  0  0  0  0
 12 19  1  0  0  0  0
 13 14  2  0  0  0  0
 13 18  1  0  0  0  0
 14 15  1  0  0  0  0
 14 45  1  0  0  0  0
 15 16  2  0  0  0  0
 15 46  1  0  0  0  0
 16 17  1  0  0  0  0
 16 47  1  0  0  0  0
 17 18  2  0  0  0  0
 17 48  1  0  0  0  0
 19 20  2  0  0  0  0
 19 24  1  0  0  0  0
 20 21  1  0  0  0  0
 20 49  1  0  0  0  0
 21 22  2  0  0  0  0
 21 26  1  0  0  0  0
 22 23  1  0  0  0  0
 22 25  1  0  0  0  0
 23 24  2  0  0  0  0
 23 50  1  0  0  0  0
 24 51  1  0  0  0  0
 25 52  1  0  0  0  0
 25 53  1  0  0  0  0
 25 54  1  0  0  0  0
 26 27  2  0  0  0  0
 26 28  2  0  0  0  0
 26 29  1  0  0  0  0
 29 30  1  0  0  0  0
 29 55  1  0  0  0  0
 30 31  1  0  0  0  0
 30 56  1  0  0  0  0
 30 57  1  0  0  0  0
 31 32  2  0  0  0  0
 31 36  1  0  0  0  0
 32 33  1  0  0  0  0
 32 58  1  0  0  0  0
 33 34  2  0  0  0  0
 33 59  1  0  0  0  0
 34 35  1  0  0  0  0
 34 60  1  0  0  0  0
 35 36  2  0  0  0  0
 35 61  1  0  0  0  0
M  END
