
 OpenBabel10072619503D

 59 62  0  0  0  0  0  0  0  0999 V2000
    6.6407   10.6526    0.6796 C   0  0  0  0  0  0  0  0  0  0  0  0
    7.0406    9.7925   -0.3765 O   0  0  0  0  0  0  0  0  0  0  0  0
    6.7717    8.4606   -0.2368 C   0  0  0  0  0  0  0  0  0  0  0  0
    6.1985    7.8422    0.8706 C   0  0  0  0  0  0  0  0  0  0  0  0
    6.0630    6.4498    0.8934 C   0  0  0  0  0  0  0  0  0  0  0  0
    6.4866    5.6746   -0.1880 C   0  0  0  0  0  0  0  0  0  0  0  0
    7.0158    6.2792   -1.3175 C   0  0  0  0  0  0  0  0  0  0  0  0
    7.1626    7.6768   -1.3258 C   0  0  0  0  0  0  0  0  0  0  0  0
    7.5204    5.6017   -2.4572 N   0  0  0  0  0  0  0  0  0  0  0  0
    7.3928    4.2970   -2.9059 C   0  0  0  0  0  0  0  0  0  0  0  0
    6.0821    3.3035   -2.5415 S   0  0  0  0  0  0  0  0  0  0  0  0
    8.4617    3.9007   -3.7703 N   0  0  0  0  0  0  0  0  0  0  0  0
    8.4236    2.5608   -4.4048 C   0  0  0  0  0  0  0  0  0  0  0  0
    9.6255    2.0738   -5.1807 C   0  0  0  0  0  0  0  0  0  0  0  0
   10.4460    1.0482   -4.6795 C   0  0  0  0  0  0  0  0  0  0  0  0
   11.4955    0.5243   -5.4388 C   0  0  0  0  0  0  0  0  0  0  0  0
   11.7684    1.0535   -6.6968 C   0  0  0  0  0  0  0  0  0  0  0  0
   10.9830    2.0879   -7.1905 C   0  0  0  0  0  0  0  0  0  0  0  0
    9.9115    2.5846   -6.4511 C   0  0  0  0  0  0  0  0  0  0  0  0
    9.6767    4.7209   -3.8998 C   0  0  0  0  0  0  0  0  0  0  0  0
    9.4375    5.9182   -4.7744 C   0  0  0  0  0  0  0  0  0  0  0  0
    8.5380    6.1024   -5.8193 C   0  0  0  0  0  0  0  0  0  0  0  0
    8.6729    7.4305   -6.2822 C   0  0  0  0  0  0  0  0  0  0  0  0
    9.6238    8.0335   -5.5067 C   0  0  0  0  0  0  0  0  0  0  0  0
   10.1167    7.1131   -4.6141 N   0  0  0  0  0  0  0  0  0  0  0  0
   11.1407    7.4459   -3.6151 C   0  0  0  0  0  0  0  0  0  0  0  0
   12.5543    7.4140   -4.1619 C   0  0  0  0  0  0  0  0  0  0  0  0
   13.5168    8.3604   -3.7478 C   0  0  0  0  0  0  0  0  0  0  0  0
   14.8387    8.2921   -4.1902 C   0  0  0  0  0  0  0  0  0  0  0  0
   15.2271    7.2562   -5.0252 C   0  0  0  0  0  0  0  0  0  0  0  0
   14.3119    6.3000   -5.4422 C   0  0  0  0  0  0  0  0  0  0  0  0
   12.9808    6.3812   -5.0184 C   0  0  0  0  0  0  0  0  0  0  0  0
   16.5017    7.1712   -5.4215 F   0  0  0  0  0  0  0  0  0  0  0  0
   13.1334    9.6399   -2.6500 Cl  0  0  0  0  0  0  0  0  0  0  0  0
    7.1203   11.6206    0.5061 H   0  0  0  0  0  0  0  0  0  0  0  0
    6.9760   10.2972    1.6606 H   0  0  0  0  0  0  0  0  0  0  0  0
    5.5555   10.8000    0.6570 H   0  0  0  0  0  0  0  0  0  0  0  0
    5.8752    8.3998    1.7402 H   0  0  0  0  0  0  0  0  0  0  0  0
    5.6472    5.9554    1.7690 H   0  0  0  0  0  0  0  0  0  0  0  0
    6.4013    4.5955   -0.0859 H   0  0  0  0  0  0  0  0  0  0  0  0
    7.5993    8.1799   -2.1834 H   0  0  0  0  0  0  0  0  0  0  0  0
    7.8787    6.2245   -3.1597 H   0  0  0  0  0  0  0  0  0  0  0  0
    7.5514    2.5360   -5.0755 H   0  0  0  0  0  0  0  0  0  0  0  0
    8.2177    1.8264   -3.6144 H   0  0  0  0  0  0  0  0  0  0  0  0
   10.2513    0.6209   -3.6981 H   0  0  0  0  0  0  0  0  0  0  0  0
   12.0939   -0.2995   -5.0579 H   0  0  0  0  0  0  0  0  0  0  0  0
   12.5907    0.6604   -7.2892 H   0  0  0  0  0  0  0  0  0  0  0  0
   11.1902    2.5074   -8.1716 H   0  0  0  0  0  0  0  0  0  0  0  0
    9.2913    3.3664   -6.8827 H   0  0  0  0  0  0  0  0  0  0  0  0
   10.5233    4.1550   -4.2904 H   0  0  0  0  0  0  0  0  0  0  0  0
    9.9573    5.0374   -2.8908 H   0  0  0  0  0  0  0  0  0  0  0  0
    7.8384    5.3671   -6.1914 H   0  0  0  0  0  0  0  0  0  0  0  0
    8.1196    7.8989   -7.0906 H   0  0  0  0  0  0  0  0  0  0  0  0
   10.0122    9.0478   -5.5222 H   0  0  0  0  0  0  0  0  0  0  0  0
   11.0582    6.7720   -2.7597 H   0  0  0  0  0  0  0  0  0  0  0  0
   10.8595    8.4406   -3.2540 H   0  0  0  0  0  0  0  0  0  0  0  0
   15.5773    9.0268   -3.8813 H   0  0  0  0  0  0  0  0  0  0  0  0
   14.6406    5.4937   -6.0895 H   0  0  0  0  0  0  0  0  0  0  0  0
   12.2880    5.6178   -5.3711 H   0  0  0  0  0  0  0  0  0  0  0  0
  1  2  1  0  0  0  0
  1 35  1  0  0  0  0
  1 36  1  0  0  0  0
  1 37  1  0  0  0  0
  2  3  1  0  0  0  0
  3  4  2  0  0  0  0
  3  8  1  0  0  0  0
  4  5  1  0  0  0  0
  4 38  1  0  0  0  0
  5  6  2  0  0  0  0
  5 39  1  0  0  0  0
  6  7  1  0  0  0  0
  6 40  1  0  0  0  0
  7  8  2  0  0  0  0
  7  9  1  0  0  0  0
  8 41  1  0  0  0  0
  9 10  1  0  0  0  0
  9 42  1  0  0  0  0
 10 11  2  0  0  0  0
 10 12  1  0  0  0  0
 12 13  1  0  0  0  0
 12 20  1  0  0  0  0
 13 14  1  0  0  0  0
 13 43  1  0  0  0  0
 13 44  1  0  0  0  0
 14 15  2  0  0  0  0
 14 19  1  0  0  0  0
 15 16  1  0  0  0  0
 15 45  1  0  0  0  0
 16 17  2  0  0  0  0
 16 46  1  0  0  0  0
 17 18  1  0  0  0  0
 17 47  1  0  0  0  0
 18 19  2  0  0  0  0
 18 48  1  0  0  0  0
 19 49  1  0  0  0  0
 20 21  1  0  0  0  0
 20 50  1  0  0  0  0
 20 51  1  0  0  0  0
 21 22  2  0  0  0  0
 21 25  1  0  0  0  0
 22 23  1  0  0  0  0
 22 52  1  0  0  0  0
 23 24  2  0  0  0  0
 23 53  1  0  0  0  0
 24 25  1  0  0  0  0
 24 54  1  0  0  0  0
 25 26  1  0  0  0  0
 26 27  1  0  0  0  0
 26 55  1  0  0  0  0
 26 56  1  0  0  0  0
 27 28  2  0  0  0  0
 27 32  1  0  0  0  0
 28 29  1  0  0  0  0
 28 34  1  0  0  0  0
 29 30  2  0  0  0  0
 29 57  1  0  0  0  0
 30 31  1  0  0  0  0
 30 33  1  0  0  0  0
 31 32  2  0  0  0  0
 31 58  1  0  0  0  0
 32 59  1  0  0  0  0
M  END
