
 OpenBabel10072619513D

 48 50  0  0  0  0  0  0  0  0999 V2000
   -0.2043   -5.5944   -2.6127 C   0  0  0  0  0  0  0  0  0  0  0  0
   -1.1236   -4.6331   -1.9683 C   0  0  0  0  0  0  0  0  0  0  0  0
   -0.9663   -3.4833   -1.2177 C   0  0  0  0  0  0  0  0  0  0  0  0
   -2.3061   -3.0179   -1.0231 C   0  0  0  0  0  0  0  0  0  0  0  0
   -3.1878   -3.9069   -1.5098 N   0  0  0  0  0  0  0  0  0  0  0  0
   -2.4469   -4.8947   -2.1196 O   0  0  0  0  0  0  0  0  0  0  0  0
   -2.7692   -1.7881   -0.3783 C   0  0  0  0  0  0  0  0  0  0  0  0
   -2.4507   -1.5526    0.9718 C   0  0  0  0  0  0  0  0  0  0  0  0
   -2.8726   -0.3788    1.6096 C   0  0  0  0  0  0  0  0  0  0  0  0
   -3.6199    0.5694    0.9115 C   0  0  0  0  0  0  0  0  0  0  0  0
   -3.9488    0.3463   -0.4264 C   0  0  0  0  0  0  0  0  0  0  0  0
   -3.5255   -0.8244   -1.0724 C   0  0  0  0  0  0  0  0  0  0  0  0
   -3.9409   -0.9900   -2.7474 Cl  0  0  0  0  0  0  0  0  0  0  0  0
    0.2795   -2.8539   -0.8320 C   0  0  0  0  0  0  0  0  0  0  0  0
    0.4313   -1.6341   -0.8496 O   0  0  0  0  0  0  0  0  0  0  0  0
    1.3614   -3.6460   -0.4436 N   0  0  0  0  0  0  0  0  0  0  0  0
    1.4643   -4.7522    0.3909 C   0  0  0  0  0  0  0  0  0  0  0  0
    0.2191   -5.6138    1.0968 S   0  0  0  0  0  0  0  0  0  0  0  0
    2.7276   -5.2625    0.5566 N   0  0  0  0  0  0  0  0  0  0  0  0
    3.9601   -4.6014    0.7517 C   0  0  0  0  0  0  0  0  0  0  0  0
    4.0697   -3.2535    1.0951 C   0  0  0  0  0  0  0  0  0  0  0  0
    5.3215   -2.6974    1.3915 C   0  0  0  0  0  0  0  0  0  0  0  0
    6.4872   -3.4814    1.3695 C   0  0  0  0  0  0  0  0  0  0  0  0
    6.3680   -4.8337    1.0238 C   0  0  0  0  0  0  0  0  0  0  0  0
    5.1163   -5.3898    0.7272 C   0  0  0  0  0  0  0  0  0  0  0  0
    7.8205   -2.8401    1.7266 C   0  0  0  0  0  0  0  0  0  0  0  0
    8.8128   -3.7909    2.4056 C   0  0  0  0  0  0  0  0  0  0  0  0
    8.4660   -2.1989    0.4967 C   0  0  0  0  0  0  0  0  0  0  0  0
    0.8038   -5.1787   -2.7063 H   0  0  0  0  0  0  0  0  0  0  0  0
   -0.5444   -5.8612   -3.6176 H   0  0  0  0  0  0  0  0  0  0  0  0
   -0.1473   -6.5170   -2.0283 H   0  0  0  0  0  0  0  0  0  0  0  0
   -1.8808   -2.2811    1.5465 H   0  0  0  0  0  0  0  0  0  0  0  0
   -2.6142   -0.2086    2.6532 H   0  0  0  0  0  0  0  0  0  0  0  0
   -3.9377    1.4876    1.4023 H   0  0  0  0  0  0  0  0  0  0  0  0
   -4.5247    1.0938   -0.9685 H   0  0  0  0  0  0  0  0  0  0  0  0
    2.2109   -3.1064   -0.5137 H   0  0  0  0  0  0  0  0  0  0  0  0
    2.7292   -6.2425    0.8294 H   0  0  0  0  0  0  0  0  0  0  0  0
    3.2002   -2.6164    1.2288 H   0  0  0  0  0  0  0  0  0  0  0  0
    5.3730   -1.6485    1.6806 H   0  0  0  0  0  0  0  0  0  0  0  0
    7.2382   -5.4875    0.9961 H   0  0  0  0  0  0  0  0  0  0  0  0
    5.0698   -6.4487    0.4806 H   0  0  0  0  0  0  0  0  0  0  0  0
    7.6177   -2.0422    2.4527 H   0  0  0  0  0  0  0  0  0  0  0  0
    9.1807   -4.5576    1.7156 H   0  0  0  0  0  0  0  0  0  0  0  0
    8.3545   -4.2966    3.2621 H   0  0  0  0  0  0  0  0  0  0  0  0
    9.6852   -3.2385    2.7723 H   0  0  0  0  0  0  0  0  0  0  0  0
    8.6858   -2.9414   -0.2771 H   0  0  0  0  0  0  0  0  0  0  0  0
    9.4065   -1.7058    0.7663 H   0  0  0  0  0  0  0  0  0  0  0  0
    7.8111   -1.4438    0.0498 H   0  0  0  0  0  0  0  0  0  0  0  0
  1  2  1  0  0  0  0
  1 29  1  0  0  0  0
  1 30  1  0  0  0  0
  1 31  1  0  0  0  0
  2  3  2  0  0  0  0
  2  6  1  0  0  0  0
  3  4  1  0  0  0  0
  3 14  1  0  0  0  0
  4  5  2  0  0  0  0
  4  7  1  0  0  0  0
  5  6  1  0  0  0  0
  7  8  2  0  0  0  0
  7 12  1  0  0  0  0
  8  9  1  0  0  0  0
  8 32  1  0  0  0  0
  9 10  2  0  0  0  0
  9 33  1  0  0  0  0
 10 11  1  0  0  0  0
 10 34  1  0  0  0  0
 11 12  2  0  0  0  0
 11 35  1  0  0  0  0
 12 13  1  0  0  0  0
 14 15  2  0  0  0  0
 14 16  1  0  0  0  0
 16 17  1  0  0  0  0
 16 36  1  0  0  0  0
 17 18  2  0  0  0  0
 17 19  1  0  0  0  0
 19 20  1  0  0  0  0
 19 37  1  0  0  0  0
 20 21  2  0  0  0  0
 20 25  1  0  0  0  0
 21 22  1  0  0  0  0
 21 38  1  0  0  0  0
 22 23  2  0  0  0  0
 22 39  1  0  0  0  0
 23 24  1  0  0  0  0
 23 26  1  0  0  0  0
 24 25  2  0  0  0  0
 24 40  1  0  0  0  0
 25 41  1  0  0  0  0
 26 27  1  0  0  0  0
 26 28  1  0  0  0  0
 26 42  1  0  0  0  0
 27 43  1  0  0  0  0
 27 44  1  0  0  0  0
 27 45  1  0  0  0  0
 28 46  1  0  0  0  0
 28 47  1  0  0  0  0
 28 48  1  0  0  0  0
M  END
