
 OpenBabel10072619513D

 31 32  0  0  0  0  0  0  0  0999 V2000
    1.3830    0.1066   -0.2208 C   0  0  0  0  0  0  0  0  0  0  0  0
    0.8680   -1.1855   -0.2635 C   0  0  0  0  0  0  0  0  0  0  0  0
   -0.5110   -1.3867   -0.1505 C   0  0  0  0  0  0  0  0  0  0  0  0
   -1.3740   -0.2968    0.0364 C   0  0  0  0  0  0  0  0  0  0  0  0
   -0.8601    1.0019    0.0720 C   0  0  0  0  0  0  0  0  0  0  0  0
    0.5222    1.1935   -0.0624 C   0  0  0  0  0  0  0  0  0  0  0  0
   -1.6499    2.1598    0.2081 N   0  0  0  0  0  0  0  0  0  0  0  0
   -3.0117    2.2429    0.4469 C   0  0  0  0  0  0  0  0  0  0  0  0
   -3.7448    1.2957    0.6956 O   0  0  0  0  0  0  0  0  0  0  0  0
   -3.4238    3.5585    0.3398 N   0  0  0  0  0  0  0  0  0  0  0  0
   -4.6898    4.1085    0.6492 C   0  0  0  0  0  0  0  0  0  0  0  0
   -4.9846    5.4125    0.1919 C   0  0  0  0  0  0  0  0  0  0  0  0
   -6.2208    6.0016    0.4900 C   0  0  0  0  0  0  0  0  0  0  0  0
   -7.1537    5.3080    1.2636 C   0  0  0  0  0  0  0  0  0  0  0  0
   -6.8635    4.0236    1.7222 C   0  0  0  0  0  0  0  0  0  0  0  0
   -5.6382    3.4263    1.4176 C   0  0  0  0  0  0  0  0  0  0  0  0
   -6.6538    7.5798   -0.0716 Cl  0  0  0  0  0  0  0  0  0  0  0  0
   -3.7927    6.2657   -0.7505 Cl  0  0  0  0  0  0  0  0  0  0  0  0
   -1.0189   -2.7765   -0.2221 C   0  0  0  0  0  0  0  0  0  0  0  0
   -0.4097   -3.7288    0.2348 O   0  0  0  0  0  0  0  0  0  0  0  0
   -2.1686   -2.8927   -0.9182 O   0  0  0  0  0  0  0  0  0  0  0  0
    2.4542    0.2684   -0.3101 H   0  0  0  0  0  0  0  0  0  0  0  0
    1.5384   -2.0344   -0.3870 H   0  0  0  0  0  0  0  0  0  0  0  0
   -2.4351   -0.4804    0.1711 H   0  0  0  0  0  0  0  0  0  0  0  0
    0.9530    2.1920   -0.0406 H   0  0  0  0  0  0  0  0  0  0  0  0
   -1.1528    3.0378    0.2493 H   0  0  0  0  0  0  0  0  0  0  0  0
   -2.8208    4.1651   -0.2011 H   0  0  0  0  0  0  0  0  0  0  0  0
   -8.1102    5.7616    1.5115 H   0  0  0  0  0  0  0  0  0  0  0  0
   -7.5932    3.4839    2.3225 H   0  0  0  0  0  0  0  0  0  0  0  0
   -5.4446    2.4303    1.8090 H   0  0  0  0  0  0  0  0  0  0  0  0
   -2.4797   -2.0703   -1.3410 H   0  0  0  0  0  0  0  0  0  0  0  0
  1  2  2  0  0  0  0
  1  6  1  0  0  0  0
  1 22  1  0  0  0  0
  2  3  1  0  0  0  0
  2 23  1  0  0  0  0
  3  4  2  0  0  0  0
  3 19  1  0  0  0  0
  4  5  1  0  0  0  0
  4 24  1  0  0  0  0
  5  6  2  0  0  0  0
  5  7  1  0  0  0  0
  6 25  1  0  0  0  0
  7  8  1  0  0  0  0
  7 26  1  0  0  0  0
  8  9  2  0  0  0  0
  8 10  1  0  0  0  0
 10 11  1  0  0  0  0
 10 27  1  0  0  0  0
 11 12  2  0  0  0  0
 11 16  1  0  0  0  0
 12 13  1  0  0  0  0
 12 18  1  0  0  0  0
 13 14  2  0  0  0  0
 13 17  1  0  0  0  0
 14 15  1  0  0  0  0
 14 28  1  0  0  0  0
 15 16  2  0  0  0  0
 15 29  1  0  0  0  0
 16 30  1  0  0  0  0
 19 20  2  0  0  0  0
 19 21  1  0  0  0  0
 21 31  1  0  0  0  0
M  END
