
 OpenBabel10072616323D

 38 40  0  0  0  0  0  0  0  0999 V2000
    2.8566   -1.1774    1.6832 C   0  0  0  0  0  0  0  0  0  0  0  0
    2.6114   -0.4033    0.4541 N   0  0  0  0  0  0  0  0  0  0  0  0
    3.0088    1.0110    0.5677 C   0  0  0  0  0  0  0  0  0  0  0  0
    2.9266   -1.1789   -1.0278 S   0  0  0  0  0  0  0  0  0  0  0  0
    2.4066   -2.5279   -0.9536 O   0  0  0  0  0  0  0  0  0  0  0  0
    2.5299   -0.2862   -2.0960 O   0  0  0  0  0  0  0  0  0  0  0  0
    4.6828   -1.2980   -1.0621 C   0  0  0  0  0  0  0  0  0  0  0  0
    5.4219   -0.3424   -1.7231 C   0  0  0  0  0  0  0  0  0  0  0  0
    6.7762   -0.3676   -1.7880 N   0  0  0  0  0  0  0  0  0  0  0  0
    7.4472   -1.4046   -1.2214 C   0  0  0  0  0  0  0  0  0  0  0  0
    6.7433   -2.4044   -0.5484 C   0  0  0  0  0  0  0  0  0  0  0  0
    5.3492   -2.3656   -0.4793 C   0  0  0  0  0  0  0  0  0  0  0  0
    8.8373   -1.4097   -1.2915 N   0  0  0  0  0  0  0  0  0  0  0  0
    9.5122   -0.1917   -1.7704 C   0  0  0  0  0  0  0  0  0  0  0  0
   11.0156   -0.3747   -1.4984 C   0  0  0  0  0  0  0  0  0  0  0  0
   11.1135   -1.8619   -1.4310 C   0  0  0  0  0  0  0  0  0  0  0  0
   12.2600   -2.6411   -1.4522 C   0  0  0  0  0  0  0  0  0  0  0  0
   12.1140   -4.0237   -1.3679 C   0  0  0  0  0  0  0  0  0  0  0  0
   10.8382   -4.5945   -1.2719 C   0  0  0  0  0  0  0  0  0  0  0  0
    9.6920   -3.7895   -1.2447 C   0  0  0  0  0  0  0  0  0  0  0  0
    9.8299   -2.4128   -1.3038 C   0  0  0  0  0  0  0  0  0  0  0  0
    2.3458   -0.7014    2.5266 H   0  0  0  0  0  0  0  0  0  0  0  0
    3.9248   -1.2267    1.9109 H   0  0  0  0  0  0  0  0  0  0  0  0
    2.4536   -2.1904    1.6010 H   0  0  0  0  0  0  0  0  0  0  0  0
    2.4994    1.4698    1.4215 H   0  0  0  0  0  0  0  0  0  0  0  0
    2.7135    1.5782   -0.3191 H   0  0  0  0  0  0  0  0  0  0  0  0
    4.0878    1.1046    0.7180 H   0  0  0  0  0  0  0  0  0  0  0  0
    4.9577    0.4999   -2.2290 H   0  0  0  0  0  0  0  0  0  0  0  0
    7.2665   -3.2028   -0.0369 H   0  0  0  0  0  0  0  0  0  0  0  0
    4.8071   -3.1559    0.0328 H   0  0  0  0  0  0  0  0  0  0  0  0
    9.1511    0.7133   -1.2667 H   0  0  0  0  0  0  0  0  0  0  0  0
    9.3425   -0.0730   -2.8497 H   0  0  0  0  0  0  0  0  0  0  0  0
   11.2969    0.0627   -0.5346 H   0  0  0  0  0  0  0  0  0  0  0  0
   11.6237    0.0577   -2.2978 H   0  0  0  0  0  0  0  0  0  0  0  0
   13.2439   -2.1919   -1.5373 H   0  0  0  0  0  0  0  0  0  0  0  0
   12.9918   -4.6649   -1.3873 H   0  0  0  0  0  0  0  0  0  0  0  0
   10.7354   -5.6762   -1.2263 H   0  0  0  0  0  0  0  0  0  0  0  0
    8.7222   -4.2680   -1.2087 H   0  0  0  0  0  0  0  0  0  0  0  0
  1  2  1  0  0  0  0
  1 22  1  0  0  0  0
  1 23  1  0  0  0  0
  1 24  1  0  0  0  0
  2  3  1  0  0  0  0
  2  4  1  0  0  0  0
  3 25  1  0  0  0  0
  3 26  1  0  0  0  0
  3 27  1  0  0  0  0
  4  5  2  0  0  0  0
  4  6  2  0  0  0  0
  4  7  1  0  0  0  0
  7  8  2  0  0  0  0
  7 12  1  0  0  0  0
  8  9  1  0  0  0  0
  8 28  1  0  0  0  0
  9 10  2  0  0  0  0
 10 11  1  0  0  0  0
 10 13  1  0  0  0  0
 11 12  2  0  0  0  0
 11 29  1  0  0  0  0
 12 30  1  0  0  0  0
 13 14  1  0  0  0  0
 13 21  1  0  0  0  0
 14 15  1  0  0  0  0
 14 31  1  0  0  0  0
 14 32  1  0  0  0  0
 15 16  1  0  0  0  0
 15 33  1  0  0  0  0
 15 34  1  0  0  0  0
 16 17  2  0  0  0  0
 16 21  1  0  0  0  0
 17 18  1  0  0  0  0
 17 35  1  0  0  0  0
 18 19  2  0  0  0  0
 18 36  1  0  0  0  0
 19 20  1  0  0  0  0
 19 37  1  0  0  0  0
 20 21  2  0  0  0  0
 20 38  1  0  0  0  0
M  END
