
 OpenBabel10072620093D

 20 20  0  0  0  0  0  0  0  0999 V2000
    1.4123   -0.1251    0.0801 C   0  0  0  0  0  0  0  0  0  0  0  0
    0.5688   -1.2304   -0.0372 C   0  0  0  0  0  0  0  0  0  0  0  0
   -0.8109   -1.0522   -0.1556 C   0  0  0  0  0  0  0  0  0  0  0  0
   -1.3479    0.2410   -0.1600 C   0  0  0  0  0  0  0  0  0  0  0  0
   -0.5071    1.3507   -0.0271 C   0  0  0  0  0  0  0  0  0  0  0  0
    0.8790    1.1648    0.0834 C   0  0  0  0  0  0  0  0  0  0  0  0
   -1.0209    2.7359   -0.0536 C   0  0  0  0  0  0  0  0  0  0  0  0
   -1.6369    3.2082   -0.9915 O   0  0  0  0  0  0  0  0  0  0  0  0
   -0.6957    3.4160    1.0640 O   0  0  0  0  0  0  0  0  0  0  0  0
   -3.0987    0.4544   -0.2320 S   0  0  0  0  0  0  0  0  0  0  0  0
   -3.7179   -0.8509   -0.2842 O   0  0  0  0  0  0  0  0  0  0  0  0
   -3.4759    1.4279    0.7634 O   0  0  0  0  0  0  0  0  0  0  0  0
   -3.3150    1.1175   -1.7458 N   0  0  0  0  0  0  0  0  0  0  0  0
    2.4880   -0.2706    0.1583 H   0  0  0  0  0  0  0  0  0  0  0  0
    0.9872   -2.2351   -0.0400 H   0  0  0  0  0  0  0  0  0  0  0  0
   -1.4566   -1.9247   -0.2413 H   0  0  0  0  0  0  0  0  0  0  0  0
    1.5486    2.0209    0.1480 H   0  0  0  0  0  0  0  0  0  0  0  0
   -0.3451    2.8653    1.7906 H   0  0  0  0  0  0  0  0  0  0  0  0
   -4.0118    0.6179   -2.2937 H   0  0  0  0  0  0  0  0  0  0  0  0
   -3.4206    2.1366   -1.6985 H   0  0  0  0  0  0  0  0  0  0  0  0
  1  2  2  0  0  0  0
  1  6  1  0  0  0  0
  1 14  1  0  0  0  0
  2  3  1  0  0  0  0
  2 15  1  0  0  0  0
  3  4  2  0  0  0  0
  3 16  1  0  0  0  0
  4  5  1  0  0  0  0
  4 10  1  0  0  0  0
  5  6  2  0  0  0  0
  5  7  1  0  0  0  0
  6 17  1  0  0  0  0
  7  8  2  0  0  0  0
  7  9  1  0  0  0  0
  9 18  1  0  0  0  0
 10 11  2  0  0  0  0
 10 12  2  0  0  0  0
 10 13  1  0  0  0  0
 13 19  1  0  0  0  0
 13 20  1  0  0  0  0
M  END
