
 OpenBabel10072619563D

 39 40  0  0  0  0  0  0  0  0999 V2000
    0.9919   -0.3155    0.6782 C   0  0  0  0  0  0  0  0  0  0  0  0
    2.4337   -0.2317    0.2739 C   0  0  0  0  0  0  0  0  0  0  0  0
    3.3057   -1.2827    0.4921 C   0  0  0  0  0  0  0  0  0  0  0  0
    4.6625   -1.1954    0.1305 C   0  0  0  0  0  0  0  0  0  0  0  0
    5.1615   -0.0286   -0.4059 N   0  3  0  0  0  0  0  0  0  0  0  0
    4.3101    1.0269   -0.6380 C   0  0  0  0  0  0  0  0  0  0  0  0
    2.9523    0.9260   -0.2798 C   0  0  0  0  0  0  0  0  0  0  0  0
    4.7393    2.3605   -1.2003 C   0  0  0  0  0  0  0  0  0  0  0  0
    6.6186    0.0768   -0.7539 C   0  0  0  0  0  0  0  0  0  0  0  0
    7.4603    0.5714    0.4014 C   0  0  0  0  0  0  0  0  0  0  0  0
    8.1188   -0.3347    1.2512 C   0  0  0  0  0  0  0  0  0  0  0  0
    8.8629    0.1152    2.3455 C   0  0  0  0  0  0  0  0  0  0  0  0
    8.9801    1.4834    2.5855 C   0  0  0  0  0  0  0  0  0  0  0  0
    8.3624    2.4021    1.7382 C   0  0  0  0  0  0  0  0  0  0  0  0
    7.6194    1.9462    0.6452 C   0  0  0  0  0  0  0  0  0  0  0  0
    9.8596    2.0531    4.0132 S   0  0  0  0  0  0  0  0  0  0  0  0
    9.4606    3.4122    4.2866 O   0  0  0  0  0  0  0  0  0  0  0  0
    9.8326    1.0111    5.0122 O   0  0  0  0  0  0  0  0  0  0  0  0
   11.4336    2.1260    3.4424 N   0  0  0  0  0  0  0  0  0  0  0  0
    5.5106   -2.4097    0.4162 C   0  0  0  0  0  0  0  0  0  0  0  0
    0.6500   -1.3558    0.7052 H   0  0  0  0  0  0  0  0  0  0  0  0
    0.3590    0.2173   -0.0397 H   0  0  0  0  0  0  0  0  0  0  0  0
    0.8558    0.1251    1.6704 H   0  0  0  0  0  0  0  0  0  0  0  0
    2.9285   -2.1968    0.9547 H   0  0  0  0  0  0  0  0  0  0  0  0
    2.2891    1.7785   -0.4349 H   0  0  0  0  0  0  0  0  0  0  0  0
    5.6117    2.3104   -1.8498 H   0  0  0  0  0  0  0  0  0  0  0  0
    4.9350    3.0549   -0.3775 H   0  0  0  0  0  0  0  0  0  0  0  0
    3.9366    2.7867   -1.8139 H   0  0  0  0  0  0  0  0  0  0  0  0
    6.7391    0.7175   -1.6294 H   0  0  0  0  0  0  0  0  0  0  0  0
    6.9692   -0.8947   -1.1102 H   0  0  0  0  0  0  0  0  0  0  0  0
    8.0854   -1.4080    1.0753 H   0  0  0  0  0  0  0  0  0  0  0  0
    9.3494   -0.6041    3.0027 H   0  0  0  0  0  0  0  0  0  0  0  0
    8.4605    3.4717    1.9190 H   0  0  0  0  0  0  0  0  0  0  0  0
    7.1903    2.6947   -0.0158 H   0  0  0  0  0  0  0  0  0  0  0  0
   11.7691    3.0902    3.4883 H   0  0  0  0  0  0  0  0  0  0  0  0
   12.0209    1.4803    3.9736 H   0  0  0  0  0  0  0  0  0  0  0  0
    4.8896   -3.3101    0.4925 H   0  0  0  0  0  0  0  0  0  0  0  0
    6.0224   -2.2877    1.3735 H   0  0  0  0  0  0  0  0  0  0  0  0
    6.2290   -2.6171   -0.3782 H   0  0  0  0  0  0  0  0  0  0  0  0
  1  2  1  0  0  0  0
  1 21  1  0  0  0  0
  1 22  1  0  0  0  0
  1 23  1  0  0  0  0
  2  3  2  0  0  0  0
  2  7  1  0  0  0  0
  3  4  1  0  0  0  0
  3 24  1  0  0  0  0
  4  5  2  0  0  0  0
  4 20  1  0  0  0  0
  5  6  1  0  0  0  0
  5  9  1  0  0  0  0
  6  7  2  0  0  0  0
  6  8  1  0  0  0  0
  7 25  1  0  0  0  0
  8 26  1  0  0  0  0
  8 27  1  0  0  0  0
  8 28  1  0  0  0  0
  9 10  1  0  0  0  0
  9 29  1  0  0  0  0
  9 30  1  0  0  0  0
 10 11  2  0  0  0  0
 10 15  1  0  0  0  0
 11 12  1  0  0  0  0
 11 31  1  0  0  0  0
 12 13  2  0  0  0  0
 12 32  1  0  0  0  0
 13 14  1  0  0  0  0
 13 16  1  0  0  0  0
 14 15  2  0  0  0  0
 14 33  1  0  0  0  0
 15 34  1  0  0  0  0
 16 17  2  0  0  0  0
 16 18  2  0  0  0  0
 16 19  1  0  0  0  0
 19 35  1  0  0  0  0
 19 36  1  0  0  0  0
 20 37  1  0  0  0  0
 20 38  1  0  0  0  0
 20 39  1  0  0  0  0
M  CHG  1   5   1
M  END
