
 OpenBabel10072619593D

 70 73  0  0  0  0  0  0  0  0999 V2000
    0.4236   -7.4346    2.6008 C   0  0  0  0  0  0  0  0  0  0  0  0
    0.1441   -6.4503    1.5053 C   0  0  0  0  0  0  0  0  0  0  0  0
    0.8511   -5.2459    1.4086 C   0  0  0  0  0  0  0  0  0  0  0  0
    0.5645   -4.3117    0.3948 C   0  0  0  0  0  0  0  0  0  0  0  0
   -0.4170   -4.6048   -0.5841 C   0  0  0  0  0  0  0  0  0  0  0  0
   -1.1318   -5.8096   -0.4538 C   0  0  0  0  0  0  0  0  0  0  0  0
   -0.8642   -6.7096    0.5775 C   0  0  0  0  0  0  0  0  0  0  0  0
   -0.7239   -3.6023   -1.6850 C   0  0  0  0  0  0  0  0  0  0  0  0
   -1.2823   -4.1721   -2.9095 N   0  0  0  0  0  0  0  0  0  0  0  0
   -0.4999   -4.6073   -3.9558 C   0  0  0  0  0  0  0  0  0  0  0  0
   -1.3251   -5.0459   -4.9624 C   0  0  0  0  0  0  0  0  0  0  0  0
   -2.6511   -4.8698   -4.5126 C   0  0  0  0  0  0  0  0  0  0  0  0
   -2.6200   -4.2936   -3.2502 C   0  0  0  0  0  0  0  0  0  0  0  0
   -3.7750   -3.9683   -2.3477 C   0  0  0  0  0  0  0  0  0  0  0  0
   -4.0832   -2.5279   -2.3021 N   0  0  0  0  0  0  0  0  0  0  0  0
   -4.5528   -2.0548   -0.9855 C   0  0  0  0  0  0  0  0  0  0  0  0
   -3.4993   -1.3921   -0.1315 C   0  0  0  0  0  0  0  0  0  0  0  0
   -3.2527   -0.0170   -0.2339 C   0  0  0  0  0  0  0  0  0  0  0  0
   -2.2971    0.6032    0.5674 C   0  0  0  0  0  0  0  0  0  0  0  0
   -1.5806   -0.1424    1.4986 C   0  0  0  0  0  0  0  0  0  0  0  0
   -1.8290   -1.5064    1.6336 C   0  0  0  0  0  0  0  0  0  0  0  0
   -2.7826   -2.1294    0.8238 C   0  0  0  0  0  0  0  0  0  0  0  0
   -4.6484   -1.8437   -3.4232 C   0  0  0  0  0  0  0  0  0  0  0  0
   -5.3508   -2.5703   -4.7625 S   0  0  0  0  0  0  0  0  0  0  0  0
   -4.4536   -0.4672   -3.2861 N   0  0  0  0  0  0  0  0  0  0  0  0
   -5.0836    0.6021   -3.9753 C   0  0  0  0  0  0  0  0  0  0  0  0
   -6.4831    0.7053   -4.1061 C   0  0  0  0  0  0  0  0  0  0  0  0
   -7.0270    1.7615   -4.8647 C   0  0  0  0  0  0  0  0  0  0  0  0
   -6.2162    2.7434   -5.4362 C   0  0  0  0  0  0  0  0  0  0  0  0
   -4.8441    2.7021   -5.1941 C   0  0  0  0  0  0  0  0  0  0  0  0
   -4.2647    1.6511   -4.4574 C   0  0  0  0  0  0  0  0  0  0  0  0
   -2.7767    1.6780   -4.2266 C   0  0  0  0  0  0  0  0  0  0  0  0
   -6.8205    3.8617   -6.2349 C   0  0  0  0  0  0  0  0  0  0  0  0
   -7.4722   -0.2132   -3.4381 C   0  0  0  0  0  0  0  0  0  0  0  0
    1.3666   -3.0361    0.3540 C   0  0  0  0  0  0  0  0  0  0  0  0
    1.3935   -7.2448    3.0723 H   0  0  0  0  0  0  0  0  0  0  0  0
    0.4503   -8.4523    2.1959 H   0  0  0  0  0  0  0  0  0  0  0  0
   -0.3577   -7.3780    3.3663 H   0  0  0  0  0  0  0  0  0  0  0  0
    1.6427   -5.0360    2.1275 H   0  0  0  0  0  0  0  0  0  0  0  0
   -1.9057   -6.0841   -1.1679 H   0  0  0  0  0  0  0  0  0  0  0  0
   -1.4402   -7.6327    0.6399 H   0  0  0  0  0  0  0  0  0  0  0  0
    0.1957   -3.0921   -1.9964 H   0  0  0  0  0  0  0  0  0  0  0  0
   -1.4131   -2.8380   -1.3321 H   0  0  0  0  0  0  0  0  0  0  0  0
    0.5804   -4.5759   -3.8945 H   0  0  0  0  0  0  0  0  0  0  0  0
   -1.0080   -5.4524   -5.9122 H   0  0  0  0  0  0  0  0  0  0  0  0
   -3.5494   -5.1370   -5.0543 H   0  0  0  0  0  0  0  0  0  0  0  0
   -3.5284   -4.3103   -1.3362 H   0  0  0  0  0  0  0  0  0  0  0  0
   -4.6740   -4.5177   -2.6533 H   0  0  0  0  0  0  0  0  0  0  0  0
   -4.9898   -2.9017   -0.4414 H   0  0  0  0  0  0  0  0  0  0  0  0
   -5.3874   -1.3549   -1.1126 H   0  0  0  0  0  0  0  0  0  0  0  0
   -3.8295    0.5958   -0.9251 H   0  0  0  0  0  0  0  0  0  0  0  0
   -2.1217    1.6731    0.4739 H   0  0  0  0  0  0  0  0  0  0  0  0
   -0.8364    0.3388    2.1260 H   0  0  0  0  0  0  0  0  0  0  0  0
   -1.2802   -2.0896    2.3675 H   0  0  0  0  0  0  0  0  0  0  0  0
   -2.9573   -3.1938    0.9471 H   0  0  0  0  0  0  0  0  0  0  0  0
   -3.5024   -0.3013   -2.9868 H   0  0  0  0  0  0  0  0  0  0  0  0
   -8.1055    1.8210   -4.9959 H   0  0  0  0  0  0  0  0  0  0  0  0
   -4.2112    3.4937   -5.5919 H   0  0  0  0  0  0  0  0  0  0  0  0
   -2.3048    2.5372   -4.7148 H   0  0  0  0  0  0  0  0  0  0  0  0
   -2.3056    0.7743   -4.6268 H   0  0  0  0  0  0  0  0  0  0  0  0
   -2.5679    1.7585   -3.1542 H   0  0  0  0  0  0  0  0  0  0  0  0
   -7.8308    3.6052   -6.5709 H   0  0  0  0  0  0  0  0  0  0  0  0
   -6.2244    4.0558   -7.1323 H   0  0  0  0  0  0  0  0  0  0  0  0
   -6.8765    4.7761   -5.6358 H   0  0  0  0  0  0  0  0  0  0  0  0
   -7.0329   -0.7615   -2.6023 H   0  0  0  0  0  0  0  0  0  0  0  0
   -7.8933   -0.9179   -4.1615 H   0  0  0  0  0  0  0  0  0  0  0  0
   -8.2958    0.3705   -3.0094 H   0  0  0  0  0  0  0  0  0  0  0  0
    1.8570   -2.8395    1.3135 H   0  0  0  0  0  0  0  0  0  0  0  0
    0.7249   -2.1745    0.1483 H   0  0  0  0  0  0  0  0  0  0  0  0
    2.1361   -3.1071   -0.4203 H   0  0  0  0  0  0  0  0  0  0  0  0
  1  2  1  0  0  0  0
  1 36  1  0  0  0  0
  1 37  1  0  0  0  0
  1 38  1  0  0  0  0
  2  3  2  0  0  0  0
  2  7  1  0  0  0  0
  3  4  1  0  0  0  0
  3 39  1  0  0  0  0
  4  5  2  0  0  0  0
  4 35  1  0  0  0  0
  5  6  1  0  0  0  0
  5  8  1  0  0  0  0
  6  7  2  0  0  0  0
  6 40  1  0  0  0  0
  7 41  1  0  0  0  0
  8  9  1  0  0  0  0
  8 42  1  0  0  0  0
  8 43  1  0  0  0  0
  9 10  1  0  0  0  0
  9 13  1  0  0  0  0
 10 11  2  0  0  0  0
 10 44  1  0  0  0  0
 11 12  1  0  0  0  0
 11 45  1  0  0  0  0
 12 13  2  0  0  0  0
 12 46  1  0  0  0  0
 13 14  1  0  0  0  0
 14 15  1  0  0  0  0
 14 47  1  0  0  0  0
 14 48  1  0  0  0  0
 15 16  1  0  0  0  0
 15 23  1  0  0  0  0
 16 17  1  0  0  0  0
 16 49  1  0  0  0  0
 16 50  1  0  0  0  0
 17 18  2  0  0  0  0
 17 22  1  0  0  0  0
 18 19  1  0  0  0  0
 18 51  1  0  0  0  0
 19 20  2  0  0  0  0
 19 52  1  0  0  0  0
 20 21  1  0  0  0  0
 20 53  1  0  0  0  0
 21 22  2  0  0  0  0
 21 54  1  0  0  0  0
 22 55  1  0  0  0  0
 23 24  2  0  0  0  0
 23 25  1  0  0  0  0
 25 26  1  0  0  0  0
 25 56  1  0  0  0  0
 26 27  2  0  0  0  0
 26 31  1  0  0  0  0
 27 28  1  0  0  0  0
 27 34  1  0  0  0  0
 28 29  2  0  0  0  0
 28 57  1  0  0  0  0
 29 30  1  0  0  0  0
 29 33  1  0  0  0  0
 30 31  2  0  0  0  0
 30 58  1  0  0  0  0
 31 32  1  0  0  0  0
 32 59  1  0  0  0  0
 32 60  1  0  0  0  0
 32 61  1  0  0  0  0
 33 62  1  0  0  0  0
 33 63  1  0  0  0  0
 33 64  1  0  0  0  0
 34 65  1  0  0  0  0
 34 66  1  0  0  0  0
 34 67  1  0  0  0  0
 35 68  1  0  0  0  0
 35 69  1  0  0  0  0
 35 70  1  0  0  0  0
M  END
