
 OpenBabel10072619573D

 37 38  0  0  0  0  0  0  0  0999 V2000
    2.5277    0.9838   -0.2299 C   0  0  0  0  0  0  0  0  0  0  0  0
    1.2092    0.2702   -0.1671 C   0  0  0  0  0  0  0  0  0  0  0  0
    0.4936   -0.0267   -1.3353 C   0  0  0  0  0  0  0  0  0  0  0  0
   -0.7383   -0.7025   -1.2843 C   0  0  0  0  0  0  0  0  0  0  0  0
   -1.2421   -1.0836   -0.0310 C   0  0  0  0  0  0  0  0  0  0  0  0
   -0.5231   -0.8099    1.1344 C   0  0  0  0  0  0  0  0  0  0  0  0
    0.6934   -0.1314    1.0681 C   0  0  0  0  0  0  0  0  0  0  0  0
   -2.4672   -1.8143    0.1046 N   0  0  0  0  0  0  0  0  0  0  0  0
   -2.3450   -3.5107   -0.0296 S   0  0  0  0  0  0  0  0  0  0  0  0
   -3.0974   -3.8323   -1.2265 O   0  0  0  0  0  0  0  0  0  0  0  0
   -0.9643   -3.9209    0.1087 O   0  0  0  0  0  0  0  0  0  0  0  0
   -3.2508   -4.1029    1.3262 C   0  0  0  0  0  0  0  0  0  0  0  0
   -2.7398   -3.9910    2.5619 C   0  0  0  0  0  0  0  0  0  0  0  0
   -3.4374   -4.4383    3.7735 C   0  0  0  0  0  0  0  0  0  0  0  0
   -4.1992   -5.6144    3.8080 C   0  0  0  0  0  0  0  0  0  0  0  0
   -4.8318   -6.0180    4.9883 C   0  0  0  0  0  0  0  0  0  0  0  0
   -4.6957   -5.2524    6.1437 C   0  0  0  0  0  0  0  0  0  0  0  0
   -3.9273   -4.0916    6.1310 C   0  0  0  0  0  0  0  0  0  0  0  0
   -3.2947   -3.6897    4.9503 C   0  0  0  0  0  0  0  0  0  0  0  0
   -5.4739   -5.7485    7.5952 Cl  0  0  0  0  0  0  0  0  0  0  0  0
   -1.4467   -1.0259   -2.5694 C   0  0  0  0  0  0  0  0  0  0  0  0
    2.7607    1.3088   -1.2492 H   0  0  0  0  0  0  0  0  0  0  0  0
    3.3309    0.3210    0.1075 H   0  0  0  0  0  0  0  0  0  0  0  0
    2.5048    1.8749    0.4059 H   0  0  0  0  0  0  0  0  0  0  0  0
    0.9050    0.2666   -2.3000 H   0  0  0  0  0  0  0  0  0  0  0  0
   -0.9087   -1.1190    2.1010 H   0  0  0  0  0  0  0  0  0  0  0  0
    1.2404    0.0751    1.9851 H   0  0  0  0  0  0  0  0  0  0  0  0
   -3.1762   -1.5162   -0.5666 H   0  0  0  0  0  0  0  0  0  0  0  0
   -4.2171   -4.5334    1.1105 H   0  0  0  0  0  0  0  0  0  0  0  0
   -1.7642   -3.5326    2.7149 H   0  0  0  0  0  0  0  0  0  0  0  0
   -4.3013   -6.2393    2.9236 H   0  0  0  0  0  0  0  0  0  0  0  0
   -5.4216   -6.9307    4.9986 H   0  0  0  0  0  0  0  0  0  0  0  0
   -3.8147   -3.4958    7.0331 H   0  0  0  0  0  0  0  0  0  0  0  0
   -2.6971   -2.7806    4.9587 H   0  0  0  0  0  0  0  0  0  0  0  0
   -0.9894   -0.5087   -3.4198 H   0  0  0  0  0  0  0  0  0  0  0  0
   -2.4925   -0.7061   -2.5270 H   0  0  0  0  0  0  0  0  0  0  0  0
   -1.3989   -2.1007   -2.7676 H   0  0  0  0  0  0  0  0  0  0  0  0
  1  2  1  0  0  0  0
  1 22  1  0  0  0  0
  1 23  1  0  0  0  0
  1 24  1  0  0  0  0
  2  3  2  0  0  0  0
  2  7  1  0  0  0  0
  3  4  1  0  0  0  0
  3 25  1  0  0  0  0
  4  5  2  0  0  0  0
  4 21  1  0  0  0  0
  5  6  1  0  0  0  0
  5  8  1  0  0  0  0
  6  7  2  0  0  0  0
  6 26  1  0  0  0  0
  7 27  1  0  0  0  0
  8  9  1  0  0  0  0
  8 28  1  0  0  0  0
  9 10  2  0  0  0  0
  9 11  2  0  0  0  0
  9 12  1  0  0  0  0
 12 13  2  0  0  0  0
 12 29  1  0  0  0  0
 13 14  1  0  0  0  0
 13 30  1  0  0  0  0
 14 15  2  0  0  0  0
 14 19  1  0  0  0  0
 15 16  1  0  0  0  0
 15 31  1  0  0  0  0
 16 17  2  0  0  0  0
 16 32  1  0  0  0  0
 17 18  1  0  0  0  0
 17 20  1  0  0  0  0
 18 19  2  0  0  0  0
 18 33  1  0  0  0  0
 19 34  1  0  0  0  0
 21 35  1  0  0  0  0
 21 36  1  0  0  0  0
 21 37  1  0  0  0  0
M  END
