
 OpenBabel10072620113D

 39 41  0  0  0  0  0  0  0  0999 V2000
    3.7355   -0.2983    0.0729 C   0  0  0  0  0  0  0  0  0  0  0  0
    4.4510    0.4211    0.9483 C   0  0  0  0  0  0  0  0  0  0  0  0
    4.3914    1.9098    1.0973 C   0  0  0  0  0  0  0  0  0  0  0  0
    5.5478    2.4417    0.4097 N   0  0  0  0  0  0  0  0  0  0  0  0
    6.1280    3.6704    0.5737 C   0  0  0  0  0  0  0  0  0  0  0  0
    5.6826    4.8340    1.6807 S   0  0  0  0  0  0  0  0  0  0  0  0
    7.1736    3.9149   -0.2919 N   0  0  0  0  0  0  0  0  0  0  0  0
    7.7483    2.8419   -1.0030 N   0  0  0  0  0  0  0  0  0  0  0  0
    9.1174    2.7147   -0.8853 C   0  0  0  0  0  0  0  0  0  0  0  0
    9.8322    3.4526   -0.0840 N   0  0  0  0  0  0  0  0  0  0  0  0
   11.1642    3.1816   -0.0711 C   0  0  0  0  0  0  0  0  0  0  0  0
   11.8188    2.2056   -0.7946 C   0  0  0  0  0  0  0  0  0  0  0  0
   13.2233    2.1573   -0.5135 C   0  0  0  0  0  0  0  0  0  0  0  0
   13.5692    3.1190    0.4189 C   0  0  0  0  0  0  0  0  0  0  0  0
   12.2418    4.0621    0.9172 S   0  0  0  0  0  0  0  0  0  0  0  0
   14.9531    3.3531    0.9419 C   0  0  0  0  0  0  0  0  0  0  0  0
   15.8364    2.1255    0.6721 C   0  0  0  0  0  0  0  0  0  0  0  0
   15.6769    1.6252   -0.7703 C   0  0  0  0  0  0  0  0  0  0  0  0
   14.2311    1.1936   -1.0749 C   0  0  0  0  0  0  0  0  0  0  0  0
   11.0095    1.3895   -1.6709 C   0  0  0  0  0  0  0  0  0  0  0  0
   11.4382    0.4664   -2.3566 O   0  0  0  0  0  0  0  0  0  0  0  0
    9.6750    1.7323   -1.6770 N   0  0  0  0  0  0  0  0  0  0  0  0
    3.8469   -1.3784    0.0240 H   0  0  0  0  0  0  0  0  0  0  0  0
    3.0333    0.1655   -0.6135 H   0  0  0  0  0  0  0  0  0  0  0  0
    5.1363   -0.0948    1.6189 H   0  0  0  0  0  0  0  0  0  0  0  0
    4.4077    2.1821    2.1571 H   0  0  0  0  0  0  0  0  0  0  0  0
    3.4935    2.3381    0.6375 H   0  0  0  0  0  0  0  0  0  0  0  0
    5.9592    1.8787   -0.3196 H   0  0  0  0  0  0  0  0  0  0  0  0
    7.8118    4.6728   -0.0450 H   0  0  0  0  0  0  0  0  0  0  0  0
    7.3719    2.7408   -1.9406 H   0  0  0  0  0  0  0  0  0  0  0  0
   14.9397    3.5628    2.0170 H   0  0  0  0  0  0  0  0  0  0  0  0
   15.3807    4.2277    0.4364 H   0  0  0  0  0  0  0  0  0  0  0  0
   15.5655    1.3172    1.3632 H   0  0  0  0  0  0  0  0  0  0  0  0
   16.8839    2.3793    0.8703 H   0  0  0  0  0  0  0  0  0  0  0  0
   16.3559    0.7839   -0.9504 H   0  0  0  0  0  0  0  0  0  0  0  0
   15.9719    2.4272   -1.4587 H   0  0  0  0  0  0  0  0  0  0  0  0
   14.0514    0.2049   -0.6345 H   0  0  0  0  0  0  0  0  0  0  0  0
   14.1077    1.0960   -2.1595 H   0  0  0  0  0  0  0  0  0  0  0  0
    9.0882    1.1432   -2.2433 H   0  0  0  0  0  0  0  0  0  0  0  0
  1  2  2  0  0  0  0
  1 23  1  0  0  0  0
  1 24  1  0  0  0  0
  2  3  1  0  0  0  0
  2 25  1  0  0  0  0
  3  4  1  0  0  0  0
  3 26  1  0  0  0  0
  3 27  1  0  0  0  0
  4  5  1  0  0  0  0
  4 28  1  0  0  0  0
  5  6  2  0  0  0  0
  5  7  1  0  0  0  0
  7  8  1  0  0  0  0
  7 29  1  0  0  0  0
  8  9  1  0  0  0  0
  8 30  1  0  0  0  0
  9 10  2  0  0  0  0
  9 22  1  0  0  0  0
 10 11  1  0  0  0  0
 11 12  2  0  0  0  0
 11 15  1  0  0  0  0
 12 13  1  0  0  0  0
 12 20  1  0  0  0  0
 13 14  2  0  0  0  0
 13 19  1  0  0  0  0
 14 15  1  0  0  0  0
 14 16  1  0  0  0  0
 16 17  1  0  0  0  0
 16 31  1  0  0  0  0
 16 32  1  0  0  0  0
 17 18  1  0  0  0  0
 17 33  1  0  0  0  0
 17 34  1  0  0  0  0
 18 19  1  0  0  0  0
 18 35  1  0  0  0  0
 18 36  1  0  0  0  0
 19 37  1  0  0  0  0
 19 38  1  0  0  0  0
 20 21  2  0  0  0  0
 20 22  1  0  0  0  0
 22 39  1  0  0  0  0
M  END
