
 OpenBabel10072616273D

 28 27  0  0  0  0  0  0  0  0999 V2000
    0.9402   -0.0743   -0.0300 C   0  0  0  0  0  0  0  0  0  0  0  0
    0.4335   -1.3339   -0.7135 C   0  0  0  0  0  0  0  0  0  0  0  0
    0.9402   -2.5556    0.0356 C   0  0  0  0  0  0  0  0  0  0  0  0
    1.3748   -3.6036    0.6781 C   0  0  0  0  0  0  0  0  0  0  0  0
    1.8815   -4.8253    1.4272 C   0  0  0  0  0  0  0  0  0  0  0  0
    1.6614   -4.6324    2.9188 C   0  0  0  0  0  0  0  0  0  0  0  0
    2.1514   -5.8139    3.6432 N   0  0  0  0  0  0  0  0  0  0  0  0
    2.4602   -0.0743   -0.0300 C   0  0  0  0  0  0  0  0  0  0  0  0
    2.9501    1.1438    0.6310 N   0  0  0  0  0  0  0  0  0  0  0  0
    4.2436    1.3552    0.7457 C   0  0  0  0  0  0  0  0  0  0  0  0
    5.1989    0.3731    0.2128 N   0  0  0  0  0  0  0  0  0  0  0  0
    4.7336    2.5733    1.4067 N   0  0  0  0  0  0  0  0  0  0  0  0
    0.5835   -0.0476    0.9785 H   0  0  0  0  0  0  0  0  0  0  0  0
    0.5835    0.7857   -0.5573 H   0  0  0  0  0  0  0  0  0  0  0  0
    0.7902   -1.3605   -1.7219 H   0  0  0  0  0  0  0  0  0  0  0  0
   -0.6365   -1.3339   -0.7135 H   0  0  0  0  0  0  0  0  0  0  0  0
    2.9261   -4.9539    1.2345 H   0  0  0  0  0  0  0  0  0  0  0  0
    1.3484   -5.6924    1.0972 H   0  0  0  0  0  0  0  0  0  0  0  0
    0.6168   -4.5037    3.1115 H   0  0  0  0  0  0  0  0  0  0  0  0
    2.1944   -3.7652    3.2487 H   0  0  0  0  0  0  0  0  0  0  0  0
    1.6433   -6.6405    3.3286 H   0  0  0  0  0  0  0  0  0  0  0  0
    2.0037   -5.6845    4.6441 H   0  0  0  0  0  0  0  0  0  0  0  0
    2.8168   -0.1009   -1.0384 H   0  0  0  0  0  0  0  0  0  0  0  0
    2.8168   -0.9343    0.4973 H   0  0  0  0  0  0  0  0  0  0  0  0
    4.8707   -0.4427   -0.2299 H   0  0  0  0  0  0  0  0  0  0  0  0
    6.1668    0.5312    0.2986 H   0  0  0  0  0  0  0  0  0  0  0  0
    4.0939    3.2310    1.7636 H   0  0  0  0  0  0  0  0  0  0  0  0
    5.7016    2.7314    1.4925 H   0  0  0  0  0  0  0  0  0  0  0  0
  1  2  1  0  0  0  0
  1  8  1  0  0  0  0
  1 13  1  0  0  0  0
  1 14  1  0  0  0  0
  2  3  1  0  0  0  0
  2 15  1  0  0  0  0
  2 16  1  0  0  0  0
  3  4  3  0  0  0  0
  4  5  1  0  0  0  0
  5  6  1  0  0  0  0
  5 17  1  0  0  0  0
  5 18  1  0  0  0  0
  6  7  1  0  0  0  0
  6 19  1  0  0  0  0
  6 20  1  0  0  0  0
  7 21  1  0  0  0  0
  7 22  1  0  0  0  0
  8  9  1  0  0  0  0
  8 23  1  0  0  0  0
  8 24  1  0  0  0  0
  9 10  2  0  0  0  0
 10 11  1  0  0  0  0
 10 12  1  0  0  0  0
 11 25  1  0  0  0  0
 11 26  1  0  0  0  0
 12 27  1  0  0  0  0
 12 28  1  0  0  0  0
M  END
