
 OpenBabel10072620063D

 51 52  0  0  1  0  0  0  0  0999 V2000
    3.6187    0.3524    1.8492 C   0  0  0  0  0  0  0  0  0  0  0  0
    2.9196    0.2010    0.4914 C   0  0  3  0  0  0  0  0  0  0  0  0
    2.9119    1.4587   -0.3629 C   0  0  0  0  0  0  0  0  0  0  0  0
    3.9952    2.3406   -0.4226 C   0  0  0  0  0  0  0  0  0  0  0  0
    3.8894    3.4820   -1.2039 C   0  0  0  0  0  0  0  0  0  0  0  0
    2.7975    3.8020   -1.9301 N   0  0  0  0  0  0  0  0  0  0  0  0
    1.7724    2.9278   -1.8890 C   0  0  0  0  0  0  0  0  0  0  0  0
    1.7844    1.7599   -1.1407 C   0  0  0  0  0  0  0  0  0  0  0  0
    3.3408   -0.9949   -0.2831 N   0  0  0  0  0  0  0  0  0  0  0  0
    2.3042   -2.0113   -0.5619 C   0  0  0  0  0  0  0  0  0  0  0  0
    2.7674   -3.4113   -0.0953 C   0  0  0  0  0  0  0  0  0  0  0  0
    1.7078   -4.4365   -0.1439 N   0  0  0  0  0  0  0  0  0  0  0  0
    1.3341   -4.7527   -1.5254 C   0  0  0  0  0  0  0  0  0  0  0  0
    2.1694   -5.6530    0.5320 C   0  0  0  0  0  0  0  0  0  0  0  0
    4.5792   -1.0438   -0.9700 C   0  0  0  0  0  0  0  0  0  0  0  0
    4.6948   -1.4147   -2.6038 S   0  0  0  0  0  0  0  0  0  0  0  0
    5.6295   -0.8878   -0.0866 N   0  0  0  0  0  0  0  0  0  0  0  0
    7.0307   -0.7814   -0.2332 C   0  0  0  0  0  0  0  0  0  0  0  0
    7.7955   -1.0575    0.9253 C   0  0  0  0  0  0  0  0  0  0  0  0
    9.1890   -0.9678    0.8888 C   0  0  0  0  0  0  0  0  0  0  0  0
    9.8241   -0.6195   -0.3006 C   0  0  0  0  0  0  0  0  0  0  0  0
    9.0802   -0.3396   -1.4440 C   0  0  0  0  0  0  0  0  0  0  0  0
    7.6829   -0.4031   -1.4062 C   0  0  0  0  0  0  0  0  0  0  0  0
   11.5425   -0.5240   -0.3524 Cl  0  0  0  0  0  0  0  0  0  0  0  0
    7.0682   -1.3947    2.0470 O   0  0  0  0  0  0  0  0  0  0  0  0
    7.7807   -2.0474    3.0926 C   0  0  0  0  0  0  0  0  0  0  0  0
    3.1552    1.1521    2.4378 H   0  0  0  0  0  0  0  0  0  0  0  0
    4.6783    0.6040    1.7723 H   0  0  0  0  0  0  0  0  0  0  0  0
    3.5382   -0.5744    2.4271 H   0  0  0  0  0  0  0  0  0  0  0  0
    1.8701    0.0405    0.7754 H   0  0  0  0  0  0  0  0  0  0  0  0
    4.9161    2.1559    0.1202 H   0  0  0  0  0  0  0  0  0  0  0  0
    4.7065    4.1953   -1.2641 H   0  0  0  0  0  0  0  0  0  0  0  0
    0.9066    3.1998   -2.4865 H   0  0  0  0  0  0  0  0  0  0  0  0
    0.9229    1.1010   -1.1632 H   0  0  0  0  0  0  0  0  0  0  0  0
    2.0652   -1.9975   -1.6297 H   0  0  0  0  0  0  0  0  0  0  0  0
    1.3831   -1.7547   -0.0244 H   0  0  0  0  0  0  0  0  0  0  0  0
    3.1066   -3.3052    0.9457 H   0  0  0  0  0  0  0  0  0  0  0  0
    3.6440   -3.7384   -0.6700 H   0  0  0  0  0  0  0  0  0  0  0  0
    0.8776   -3.8882   -2.0178 H   0  0  0  0  0  0  0  0  0  0  0  0
    0.5784   -5.5464   -1.5455 H   0  0  0  0  0  0  0  0  0  0  0  0
    2.1921   -5.0815   -2.1230 H   0  0  0  0  0  0  0  0  0  0  0  0
    2.3986   -5.4432    1.5831 H   0  0  0  0  0  0  0  0  0  0  0  0
    3.0646   -6.0749    0.0599 H   0  0  0  0  0  0  0  0  0  0  0  0
    1.3828   -6.4159    0.5295 H   0  0  0  0  0  0  0  0  0  0  0  0
    5.3731   -1.1390    0.8639 H   0  0  0  0  0  0  0  0  0  0  0  0
    9.7956   -1.1537    1.7677 H   0  0  0  0  0  0  0  0  0  0  0  0
    9.5782   -0.0601   -2.3686 H   0  0  0  0  0  0  0  0  0  0  0  0
    7.1392   -0.1279   -2.3031 H   0  0  0  0  0  0  0  0  0  0  0  0
    7.0435   -2.4493    3.7943 H   0  0  0  0  0  0  0  0  0  0  0  0
    8.4089   -1.3350    3.6366 H   0  0  0  0  0  0  0  0  0  0  0  0
    8.3707   -2.8892    2.7134 H   0  0  0  0  0  0  0  0  0  0  0  0
  1  2  1  0  0  0  0
  1 27  1  0  0  0  0
  1 28  1  0  0  0  0
  1 29  1  0  0  0  0
  2  3  1  0  0  0  0
  2  9  1  0  0  0  0
  2 30  1  0  0  0  0
  3  4  2  0  0  0  0
  3  8  1  0  0  0  0
  4  5  1  0  0  0  0
  4 31  1  0  0  0  0
  5  6  2  0  0  0  0
  5 32  1  0  0  0  0
  6  7  1  0  0  0  0
  7  8  2  0  0  0  0
  7 33  1  0  0  0  0
  8 34  1  0  0  0  0
  9 10  1  0  0  0  0
  9 15  1  0  0  0  0
 10 11  1  0  0  0  0
 10 35  1  0  0  0  0
 10 36  1  0  0  0  0
 11 12  1  0  0  0  0
 11 37  1  0  0  0  0
 11 38  1  0  0  0  0
 12 13  1  0  0  0  0
 12 14  1  0  0  0  0
 13 39  1  0  0  0  0
 13 40  1  0  0  0  0
 13 41  1  0  0  0  0
 14 42  1  0  0  0  0
 14 43  1  0  0  0  0
 14 44  1  0  0  0  0
 15 16  2  0  0  0  0
 15 17  1  0  0  0  0
 17 18  1  0  0  0  0
 17 45  1  0  0  0  0
 18 19  2  0  0  0  0
 18 23  1  0  0  0  0
 19 20  1  0  0  0  0
 19 25  1  0  0  0  0
 20 21  2  0  0  0  0
 20 46  1  0  0  0  0
 21 22  1  0  0  0  0
 21 24  1  0  0  0  0
 22 23  2  0  0  0  0
 22 47  1  0  0  0  0
 23 48  1  0  0  0  0
 25 26  1  0  0  0  0
 26 49  1  0  0  0  0
 26 50  1  0  0  0  0
 26 51  1  0  0  0  0
M  END
