
 OpenBabel10072616323D

 44 45  0  0  0  0  0  0  0  0999 V2000
    2.1815    0.9654    0.3934 C   0  0  0  0  0  0  0  0  0  0  0  0
    0.7089    0.6801    0.3529 C   0  0  0  0  0  0  0  0  0  0  0  0
   -0.1144    1.2246   -0.6411 C   0  0  0  0  0  0  0  0  0  0  0  0
   -1.4892    0.9669   -0.6370 C   0  0  0  0  0  0  0  0  0  0  0  0
   -2.0472    0.1620    0.3667 C   0  0  0  0  0  0  0  0  0  0  0  0
   -1.2259   -0.3968    1.3494 C   0  0  0  0  0  0  0  0  0  0  0  0
    0.1423   -0.1264    1.3482 C   0  0  0  0  0  0  0  0  0  0  0  0
   -3.5069   -0.1350    0.4137 C   0  0  0  0  0  0  0  0  0  0  0  0
   -3.8806   -1.2367    0.7912 O   0  0  0  0  0  0  0  0  0  0  0  0
   -4.3181    0.9235    0.0587 N   0  0  0  0  0  0  0  0  0  0  0  0
   -5.6995    0.9555   -0.0483 C   0  0  0  0  0  0  0  0  0  0  0  0
   -6.5222   -0.0983    0.0908 C   0  0  0  0  0  0  0  0  0  0  0  0
   -7.9110   -0.0107   -0.1844 C   0  0  0  0  0  0  0  0  0  0  0  0
   -8.9841    0.2265    0.6641 C   0  0  0  0  0  0  0  0  0  0  0  0
  -10.1606    0.2432   -0.1229 C   0  0  0  0  0  0  0  0  0  0  0  0
   -9.7541    0.0073   -1.4106 C   0  0  0  0  0  0  0  0  0  0  0  0
   -8.4116   -0.1592   -1.4570 O   0  0  0  0  0  0  0  0  0  0  0  0
   -6.2603    2.3156   -0.3717 C   0  0  0  0  0  0  0  0  0  0  0  0
   -6.9636    2.9393    0.4141 O   0  0  0  0  0  0  0  0  0  0  0  0
   -5.7865    2.8051   -1.5640 N   0  0  0  0  0  0  0  0  0  0  0  0
   -6.0485    4.1567   -2.0133 C   0  0  0  0  0  0  0  0  0  0  0  0
   -4.8064    5.0320   -1.8719 C   0  0  0  0  0  0  0  0  0  0  0  0
   -3.7741    4.5138   -2.7237 O   0  0  0  0  0  0  0  0  0  0  0  0
   -2.6275    5.3546   -2.7176 C   0  0  0  0  0  0  0  0  0  0  0  0
    2.5318    1.4054   -0.5448 H   0  0  0  0  0  0  0  0  0  0  0  0
    2.7439    0.0386    0.5500 H   0  0  0  0  0  0  0  0  0  0  0  0
    2.4060    1.6585    1.2106 H   0  0  0  0  0  0  0  0  0  0  0  0
    0.3104    1.8454   -1.4277 H   0  0  0  0  0  0  0  0  0  0  0  0
   -2.1017    1.3818   -1.4336 H   0  0  0  0  0  0  0  0  0  0  0  0
   -1.6529   -1.0324    2.1228 H   0  0  0  0  0  0  0  0  0  0  0  0
    0.7651   -0.5506    2.1325 H   0  0  0  0  0  0  0  0  0  0  0  0
   -3.8694    1.8240   -0.0712 H   0  0  0  0  0  0  0  0  0  0  0  0
   -6.1433   -1.0865    0.3224 H   0  0  0  0  0  0  0  0  0  0  0  0
   -8.9110    0.4073    1.7271 H   0  0  0  0  0  0  0  0  0  0  0  0
  -11.1735    0.4196    0.2063 H   0  0  0  0  0  0  0  0  0  0  0  0
  -10.2679   -0.0504   -2.3598 H   0  0  0  0  0  0  0  0  0  0  0  0
   -5.2062    2.2222   -2.1552 H   0  0  0  0  0  0  0  0  0  0  0  0
   -6.8823    4.5857   -1.4494 H   0  0  0  0  0  0  0  0  0  0  0  0
   -6.3365    4.0776   -3.0649 H   0  0  0  0  0  0  0  0  0  0  0  0
   -4.4453    5.0324   -0.8366 H   0  0  0  0  0  0  0  0  0  0  0  0
   -5.0593    6.0544   -2.1711 H   0  0  0  0  0  0  0  0  0  0  0  0
   -1.8307    4.8628   -3.2819 H   0  0  0  0  0  0  0  0  0  0  0  0
   -2.2759    5.5194   -1.6951 H   0  0  0  0  0  0  0  0  0  0  0  0
   -2.8567    6.3098   -3.1989 H   0  0  0  0  0  0  0  0  0  0  0  0
  1  2  1  0  0  0  0
  1 25  1  0  0  0  0
  1 26  1  0  0  0  0
  1 27  1  0  0  0  0
  2  3  2  0  0  0  0
  2  7  1  0  0  0  0
  3  4  1  0  0  0  0
  3 28  1  0  0  0  0
  4  5  2  0  0  0  0
  4 29  1  0  0  0  0
  5  6  1  0  0  0  0
  5  8  1  0  0  0  0
  6  7  2  0  0  0  0
  6 30  1  0  0  0  0
  7 31  1  0  0  0  0
  8  9  2  0  0  0  0
  8 10  1  0  0  0  0
 10 11  1  0  0  0  0
 10 32  1  0  0  0  0
 11 12  2  0  0  0  0
 11 18  1  0  0  0  0
 12 13  1  0  0  0  0
 12 33  1  0  0  0  0
 13 14  2  0  0  0  0
 13 17  1  0  0  0  0
 14 15  1  0  0  0  0
 14 34  1  0  0  0  0
 15 16  2  0  0  0  0
 15 35  1  0  0  0  0
 16 17  1  0  0  0  0
 16 36  1  0  0  0  0
 18 19  2  0  0  0  0
 18 20  1  0  0  0  0
 20 21  1  0  0  0  0
 20 37  1  0  0  0  0
 21 22  1  0  0  0  0
 21 38  1  0  0  0  0
 21 39  1  0  0  0  0
 22 23  1  0  0  0  0
 22 40  1  0  0  0  0
 22 41  1  0  0  0  0
 23 24  1  0  0  0  0
 24 42  1  0  0  0  0
 24 43  1  0  0  0  0
 24 44  1  0  0  0  0
M  END
