
 OpenBabel10072620053D

 27 28  0  0  0  0  0  0  0  0999 V2000
   -1.6166   -0.0711    0.6134 C   0  0  0  0  0  0  0  0  0  0  0  0
   -0.8619   -1.1249    1.1160 C   0  0  0  0  0  0  0  0  0  0  0  0
    0.5091   -1.1511    0.8882 C   0  0  0  0  0  0  0  0  0  0  0  0
    1.1127   -0.1567    0.1931 N   0  3  0  0  0  0  0  0  0  0  0  0
    0.3818    0.8633   -0.3248 C   0  0  0  0  0  0  0  0  0  0  0  0
   -0.9905    0.9236   -0.1231 C   0  0  0  0  0  0  0  0  0  0  0  0
    2.5801   -0.1746    0.0078 C   0  0  0  0  0  0  0  0  0  0  0  0
    2.9338   -1.0244   -1.1918 C   0  0  0  0  0  0  0  0  0  0  0  0
    2.4790   -2.1610   -1.3082 O   0  0  0  0  0  0  0  0  0  0  0  0
    3.8756   -0.5041   -2.2270 C   0  0  0  0  0  0  0  0  0  0  0  0
    4.0224    0.8607   -2.4986 C   0  0  0  0  0  0  0  0  0  0  0  0
    4.9021    1.2912   -3.5042 C   0  0  0  0  0  0  0  0  0  0  0  0
    5.6281    0.3606   -4.2542 C   0  0  0  0  0  0  0  0  0  0  0  0
    5.4775   -1.0016   -3.9895 C   0  0  0  0  0  0  0  0  0  0  0  0
    4.6077   -1.4324   -2.9815 C   0  0  0  0  0  0  0  0  0  0  0  0
    6.7101    0.8289   -5.5124 Cl  0  0  0  0  0  0  0  0  0  0  0  0
    5.0276    2.9951   -3.7641 Cl  0  0  0  0  0  0  0  0  0  0  0  0
   -2.6929   -0.0331    0.7850 H   0  0  0  0  0  0  0  0  0  0  0  0
   -1.3418   -1.9270    1.6755 H   0  0  0  0  0  0  0  0  0  0  0  0
    1.1341   -1.9639    1.2564 H   0  0  0  0  0  0  0  0  0  0  0  0
    0.9042    1.6267   -0.8933 H   0  0  0  0  0  0  0  0  0  0  0  0
   -1.5738    1.7434   -0.5432 H   0  0  0  0  0  0  0  0  0  0  0  0
    3.0278   -0.6177    0.9059 H   0  0  0  0  0  0  0  0  0  0  0  0
    2.9266    0.8579   -0.0566 H   0  0  0  0  0  0  0  0  0  0  0  0
    3.4543    1.6215   -1.9751 H   0  0  0  0  0  0  0  0  0  0  0  0
    6.0331   -1.7399   -4.5684 H   0  0  0  0  0  0  0  0  0  0  0  0
    4.5030   -2.5027   -2.8016 H   0  0  0  0  0  0  0  0  0  0  0  0
  1  2  2  0  0  0  0
  1  6  1  0  0  0  0
  1 18  1  0  0  0  0
  2  3  1  0  0  0  0
  2 19  1  0  0  0  0
  3  4  2  0  0  0  0
  3 20  1  0  0  0  0
  4  5  1  0  0  0  0
  4  7  1  0  0  0  0
  5  6  2  0  0  0  0
  5 21  1  0  0  0  0
  6 22  1  0  0  0  0
  7  8  1  0  0  0  0
  7 23  1  0  0  0  0
  7 24  1  0  0  0  0
  8  9  2  0  0  0  0
  8 10  1  0  0  0  0
 10 11  2  0  0  0  0
 10 15  1  0  0  0  0
 11 12  1  0  0  0  0
 11 25  1  0  0  0  0
 12 13  2  0  0  0  0
 12 17  1  0  0  0  0
 13 14  1  0  0  0  0
 13 16  1  0  0  0  0
 14 15  2  0  0  0  0
 14 26  1  0  0  0  0
 15 27  1  0  0  0  0
M  CHG  1   4   1
M  END
