
 OpenBabel10072616413D

 78 82  0  0  0  0  0  0  0  0999 V2000
    3.4647    0.6527   -0.1709 C   0  0  0  0  0  0  0  0  0  0  0  0
    2.1545   -0.1091   -0.0269 C   0  0  0  0  0  0  0  0  0  0  0  0
    2.3703   -1.4366    0.6303 C   0  0  0  0  0  0  0  0  0  0  0  0
    2.4361   -2.6630    0.0502 C   0  0  0  0  0  0  0  0  0  0  0  0
    2.7368   -3.6632    1.0988 C   0  0  0  0  0  0  0  0  0  0  0  0
    3.0918   -4.9300    0.8350 C   0  0  0  0  0  0  0  0  0  0  0  0
    3.7076   -5.8401    1.7393 C   0  0  0  0  0  0  0  0  0  0  0  0
    4.6410   -6.8431    1.5149 C   0  0  0  0  0  0  0  0  0  0  0  0
    5.0355   -7.3749    2.7787 C   0  0  0  0  0  0  0  0  0  0  0  0
    4.2745   -6.7167    3.7392 C   0  0  0  0  0  0  0  0  0  0  0  0
    3.4355   -5.8432    3.0870 N   0  0  0  0  0  0  0  0  0  0  0  0
    4.2862   -6.8141    5.1562 C   0  0  0  0  0  0  0  0  0  0  0  0
    3.6376   -6.0336    6.0359 C   0  0  0  0  0  0  0  0  0  0  0  0
    3.7578   -6.1267    7.4832 C   0  0  0  0  0  0  0  0  0  0  0  0
    3.1537   -5.0746    8.0657 C   0  0  0  0  0  0  0  0  0  0  0  0
    2.5160   -4.4085    6.8756 C   0  0  0  0  0  0  0  0  0  0  0  0
    2.8021   -4.9838    5.7376 N   0  0  0  0  0  0  0  0  0  0  0  0
    1.5332   -3.2688    7.0195 C   0  0  0  0  0  0  0  0  0  0  0  0
    1.5257   -2.2479    6.1291 C   0  0  0  0  0  0  0  0  0  0  0  0
    0.6215   -1.1044    6.0521 C   0  0  0  0  0  0  0  0  0  0  0  0
    0.8585   -0.3393    4.9821 C   0  0  0  0  0  0  0  0  0  0  0  0
    1.9483   -1.1078    4.3596 C   0  0  0  0  0  0  0  0  0  0  0  0
    2.3758   -2.1327    5.0404 N   0  0  0  0  0  0  0  0  0  0  0  0
    2.3419   -0.6677    3.0068 C   0  0  0  0  0  0  0  0  0  0  0  0
    2.4848   -1.6215    2.0812 C   0  0  0  0  0  0  0  0  0  0  0  0
    2.6796   -2.9644    2.2723 N   0  0  0  0  0  0  0  0  0  0  0  0
    0.1817    0.8766    4.4557 C   0  0  0  0  0  0  0  0  0  0  0  0
   -0.5316   -0.7764    6.8907 C   0  0  0  0  0  0  0  0  0  0  0  0
   -1.6634   -1.1578    6.6324 O   0  0  0  0  0  0  0  0  0  0  0  0
   -0.2240    0.0626    7.9002 O   0  0  0  0  0  0  0  0  0  0  0  0
    0.4913   -3.4367    8.1023 C   0  0  0  0  0  0  0  0  0  0  0  0
    0.6872   -2.4390    9.2289 C   0  0  0  0  0  0  0  0  0  0  0  0
    1.4459   -1.4760    9.1768 O   0  0  0  0  0  0  0  0  0  0  0  0
   -0.1185   -2.6455   10.2875 O   0  0  0  0  0  0  0  0  0  0  0  0
    3.0794   -4.6122    9.4891 C   0  0  0  0  0  0  0  0  0  0  0  0
    4.0178   -5.2285   10.5377 C   0  0  0  0  0  0  0  0  0  0  0  0
    3.5912   -4.7876   11.9210 C   0  0  0  0  0  0  0  0  0  0  0  0
    2.4266   -4.7158   12.2809 O   0  0  0  0  0  0  0  0  0  0  0  0
    4.6245   -4.5433   12.7562 O   0  0  0  0  0  0  0  0  0  0  0  0
    4.4573   -7.2683    8.1556 C   0  0  0  0  0  0  0  0  0  0  0  0
    6.1016   -8.3848    3.0437 C   0  0  0  0  0  0  0  0  0  0  0  0
    5.1622   -7.1696    0.2230 C   0  0  0  0  0  0  0  0  0  0  0  0
    5.3850   -8.4090   -0.2343 C   0  0  0  0  0  0  0  0  0  0  0  0
    2.3176   -3.0059   -1.3948 C   0  0  0  0  0  0  0  0  0  0  0  0
    3.2915    1.6125   -0.6676 H   0  0  0  0  0  0  0  0  0  0  0  0
    4.1839    0.0859   -0.7729 H   0  0  0  0  0  0  0  0  0  0  0  0
    3.9206    0.8526    0.8048 H   0  0  0  0  0  0  0  0  0  0  0  0
    1.7088   -0.2341   -1.0187 H   0  0  0  0  0  0  0  0  0  0  0  0
    1.4311    0.4900    0.5382 H   0  0  0  0  0  0  0  0  0  0  0  0
    3.0787   -5.2620   -0.1986 H   0  0  0  0  0  0  0  0  0  0  0  0
    2.7602   -5.2568    3.5644 H   0  0  0  0  0  0  0  0  0  0  0  0
    4.9502   -7.5808    5.5365 H   0  0  0  0  0  0  0  0  0  0  0  0
    2.1980    0.3712    2.7437 H   0  0  0  0  0  0  0  0  0  0  0  0
    2.9648   -3.3141    3.1814 H   0  0  0  0  0  0  0  0  0  0  0  0
   -0.6927    1.1637    5.0516 H   0  0  0  0  0  0  0  0  0  0  0  0
   -0.1693    0.7292    3.4275 H   0  0  0  0  0  0  0  0  0  0  0  0
    0.8785    1.7225    4.4652 H   0  0  0  0  0  0  0  0  0  0  0  0
    0.7029   -0.0537    8.2244 H   0  0  0  0  0  0  0  0  0  0  0  0
    0.4967   -4.4502    8.5089 H   0  0  0  0  0  0  0  0  0  0  0  0
   -0.5083   -3.3009    7.6824 H   0  0  0  0  0  0  0  0  0  0  0  0
   -0.7083   -3.4221   10.2362 H   0  0  0  0  0  0  0  0  0  0  0  0
    2.0540   -4.7624    9.8370 H   0  0  0  0  0  0  0  0  0  0  0  0
    3.2663   -3.5301    9.5011 H   0  0  0  0  0  0  0  0  0  0  0  0
    5.0507   -4.9249   10.3346 H   0  0  0  0  0  0  0  0  0  0  0  0
    3.9730   -6.3196   10.5581 H   0  0  0  0  0  0  0  0  0  0  0  0
    5.5138   -4.6518   12.3697 H   0  0  0  0  0  0  0  0  0  0  0  0
    4.5999   -8.1331    7.5007 H   0  0  0  0  0  0  0  0  0  0  0  0
    3.8563   -7.6567    8.9840 H   0  0  0  0  0  0  0  0  0  0  0  0
    5.4402   -6.9605    8.5266 H   0  0  0  0  0  0  0  0  0  0  0  0
    6.7821   -8.4973    2.1943 H   0  0  0  0  0  0  0  0  0  0  0  0
    5.6568   -9.3612    3.2632 H   0  0  0  0  0  0  0  0  0  0  0  0
    6.7165   -8.0818    3.8984 H   0  0  0  0  0  0  0  0  0  0  0  0
    5.3685   -6.3364   -0.4453 H   0  0  0  0  0  0  0  0  0  0  0  0
    5.1693   -9.2852    0.3679 H   0  0  0  0  0  0  0  0  0  0  0  0
    5.7778   -8.5663   -1.2332 H   0  0  0  0  0  0  0  0  0  0  0  0
    2.0785   -2.1362   -2.0120 H   0  0  0  0  0  0  0  0  0  0  0  0
    1.5222   -3.7427   -1.5500 H   0  0  0  0  0  0  0  0  0  0  0  0
    3.2587   -3.4212   -1.7670 H   0  0  0  0  0  0  0  0  0  0  0  0
  1  2  1  0  0  0  0
  1 45  1  0  0  0  0
  1 46  1  0  0  0  0
  1 47  1  0  0  0  0
  2  3  1  0  0  0  0
  2 48  1  0  0  0  0
  2 49  1  0  0  0  0
  3  4  2  0  0  0  0
  3 25  1  0  0  0  0
  4  5  1  0  0  0  0
  4 44  1  0  0  0  0
  5  6  2  3  0  0  0
  5 26  1  0  0  0  0
  6  7  1  0  0  0  0
  6 50  1  0  0  0  0
  7  8  2  0  0  0  0
  7 11  1  0  0  0  0
  8  9  1  0  0  0  0
  8 42  1  0  0  0  0
  9 10  2  0  0  0  0
  9 41  1  0  0  0  0
 10 11  1  0  0  0  0
 10 12  1  0  0  0  0
 11 51  1  0  0  0  0
 12 13  2  3  0  0  0
 12 52  1  0  0  0  0
 13 14  1  0  0  0  0
 13 17  1  0  0  0  0
 14 15  2  0  0  0  0
 14 40  1  0  0  0  0
 15 16  1  0  0  0  0
 15 35  1  0  0  0  0
 16 17  2  0  0  0  0
 16 18  1  0  0  0  0
 18 19  2  3  0  0  0
 18 31  1  0  0  0  0
 19 20  1  0  0  0  0
 19 23  1  0  0  0  0
 20 21  2  0  0  0  0
 20 28  1  0  0  0  0
 21 22  1  0  0  0  0
 21 27  1  0  0  0  0
 22 23  2  0  0  0  0
 22 24  1  0  0  0  0
 24 25  2  3  0  0  0
 24 53  1  0  0  0  0
 25 26  1  0  0  0  0
 26 54  1  0  0  0  0
 27 55  1  0  0  0  0
 27 56  1  0  0  0  0
 27 57  1  0  0  0  0
 28 29  2  0  0  0  0
 28 30  1  0  0  0  0
 30 58  1  0  0  0  0
 31 32  1  0  0  0  0
 31 59  1  0  0  0  0
 31 60  1  0  0  0  0
 32 33  2  0  0  0  0
 32 34  1  0  0  0  0
 34 61  1  0  0  0  0
 35 36  1  0  0  0  0
 35 62  1  0  0  0  0
 35 63  1  0  0  0  0
 36 37  1  0  0  0  0
 36 64  1  0  0  0  0
 36 65  1  0  0  0  0
 37 38  2  0  0  0  0
 37 39  1  0  0  0  0
 39 66  1  0  0  0  0
 40 67  1  0  0  0  0
 40 68  1  0  0  0  0
 40 69  1  0  0  0  0
 41 70  1  0  0  0  0
 41 71  1  0  0  0  0
 41 72  1  0  0  0  0
 42 43  2  0  0  0  0
 42 73  1  0  0  0  0
 43 74  1  0  0  0  0
 43 75  1  0  0  0  0
 44 76  1  0  0  0  0
 44 77  1  0  0  0  0
 44 78  1  0  0  0  0
M  END
