
 OpenBabel10072620223D

 25 26  0  0  0  0  0  0  0  0999 V2000
    1.5221    0.0302    0.9413 C   0  0  0  0  0  0  0  0  0  0  0  0
    0.1282   -0.0583    0.9597 C   0  0  0  0  0  0  0  0  0  0  0  0
   -0.5754   -0.0898   -0.2439 C   0  0  0  0  0  0  0  0  0  0  0  0
    0.0969   -0.0259   -1.4630 C   0  0  0  0  0  0  0  0  0  0  0  0
    1.4901    0.0617   -1.4781 C   0  0  0  0  0  0  0  0  0  0  0  0
    2.2067    0.0920   -0.2767 C   0  0  0  0  0  0  0  0  0  0  0  0
    3.6661    0.1665   -0.3089 C   0  0  0  0  0  0  0  0  0  0  0  0
    4.4014    1.2705   -0.0951 C   0  0  0  0  0  0  0  0  0  0  0  0
    3.8835    2.6066    0.1949 C   0  0  0  0  0  0  0  0  0  0  0  0
    3.9764    3.1229    1.4869 C   0  0  0  0  0  0  0  0  0  0  0  0
    3.5037    4.4032    1.7142 C   0  0  0  0  0  0  0  0  0  0  0  0
    2.9650    5.1864    0.7546 N   0  0  0  0  0  0  0  0  0  0  0  0
    2.8878    4.6590   -0.4884 C   0  0  0  0  0  0  0  0  0  0  0  0
    3.3251    3.3874   -0.8141 C   0  0  0  0  0  0  0  0  0  0  0  0
   -2.2905   -0.2140   -0.2287 Cl  0  0  0  0  0  0  0  0  0  0  0  0
    2.0684    0.0475    1.8807 H   0  0  0  0  0  0  0  0  0  0  0  0
   -0.3955   -0.1058    1.9110 H   0  0  0  0  0  0  0  0  0  0  0  0
   -0.4512   -0.0445   -2.4017 H   0  0  0  0  0  0  0  0  0  0  0  0
    2.0107    0.1047   -2.4305 H   0  0  0  0  0  0  0  0  0  0  0  0
    4.1672   -0.7710   -0.5325 H   0  0  0  0  0  0  0  0  0  0  0  0
    5.4839    1.2006   -0.1431 H   0  0  0  0  0  0  0  0  0  0  0  0
    4.4029    2.5466    2.3010 H   0  0  0  0  0  0  0  0  0  0  0  0
    3.5496    4.8488    2.7046 H   0  0  0  0  0  0  0  0  0  0  0  0
    2.4549    5.3072   -1.2442 H   0  0  0  0  0  0  0  0  0  0  0  0
    3.2380    3.0200   -1.8316 H   0  0  0  0  0  0  0  0  0  0  0  0
  1  2  2  0  0  0  0
  1  6  1  0  0  0  0
  1 16  1  0  0  0  0
  2  3  1  0  0  0  0
  2 17  1  0  0  0  0
  3  4  2  0  0  0  0
  3 15  1  0  0  0  0
  4  5  1  0  0  0  0
  4 18  1  0  0  0  0
  5  6  2  0  0  0  0
  5 19  1  0  0  0  0
  6  7  1  0  0  0  0
  7  8  2  0  0  0  0
  7 20  1  0  0  0  0
  8  9  1  0  0  0  0
  8 21  1  0  0  0  0
  9 10  2  0  0  0  0
  9 14  1  0  0  0  0
 10 11  1  0  0  0  0
 10 22  1  0  0  0  0
 11 12  2  0  0  0  0
 11 23  1  0  0  0  0
 12 13  1  0  0  0  0
 13 14  2  0  0  0  0
 13 24  1  0  0  0  0
 14 25  1  0  0  0  0
M  END
