
 OpenBabel10072620073D

 32 33  0  0  0  0  0  0  0  0999 V2000
    2.6356    0.0645    1.7810 C   0  0  0  0  0  0  0  0  0  0  0  0
    2.4928    1.2722    1.0416 O   0  0  0  0  0  0  0  0  0  0  0  0
    3.3294    1.4465   -0.0392 C   0  0  0  0  0  0  0  0  0  0  0  0
    3.2254    2.7025   -0.6853 C   0  0  0  0  0  0  0  0  0  0  0  0
    3.9994    2.9536   -1.8186 C   0  0  0  0  0  0  0  0  0  0  0  0
    4.8941    1.9873   -2.2797 C   0  0  0  0  0  0  0  0  0  0  0  0
    5.0173    0.7621   -1.6300 C   0  0  0  0  0  0  0  0  0  0  0  0
    4.2303    0.4870   -0.5110 C   0  0  0  0  0  0  0  0  0  0  0  0
    5.8422    2.2996   -3.6829 Cl  0  0  0  0  0  0  0  0  0  0  0  0
    2.2642    3.5986   -0.1515 N   0  0  0  0  0  0  0  0  0  0  0  0
    2.0535    4.9718   -0.3050 C   0  0  0  0  0  0  0  0  0  0  0  0
    3.1738    6.0629   -0.8993 S   0  0  0  0  0  0  0  0  0  0  0  0
    0.7847    5.2856    0.1985 N   0  0  0  0  0  0  0  0  0  0  0  0
   -0.0249    6.4409    0.0971 C   0  0  0  0  0  0  0  0  0  0  0  0
    0.1359    7.4553   -0.8468 C   0  0  0  0  0  0  0  0  0  0  0  0
   -0.7441    8.5456   -0.8852 C   0  0  0  0  0  0  0  0  0  0  0  0
   -1.8026    8.6203    0.0157 C   0  0  0  0  0  0  0  0  0  0  0  0
   -1.9941    7.6067    0.9488 C   0  0  0  0  0  0  0  0  0  0  0  0
   -1.1126    6.5208    0.9810 C   0  0  0  0  0  0  0  0  0  0  0  0
   -3.1074   10.2337   -0.0460 I   0  0  0  0  0  0  0  0  0  0  0  0
    3.6443   -0.0283    2.1966 H   0  0  0  0  0  0  0  0  0  0  0  0
    2.3756   -0.8051    1.1690 H   0  0  0  0  0  0  0  0  0  0  0  0
    1.9331    0.1016    2.6190 H   0  0  0  0  0  0  0  0  0  0  0  0
    3.9013    3.8711   -2.3852 H   0  0  0  0  0  0  0  0  0  0  0  0
    5.7130    0.0127   -1.9991 H   0  0  0  0  0  0  0  0  0  0  0  0
    4.3392   -0.4839   -0.0398 H   0  0  0  0  0  0  0  0  0  0  0  0
    1.7138    3.1465    0.5705 H   0  0  0  0  0  0  0  0  0  0  0  0
    0.3896    4.5696    0.7914 H   0  0  0  0  0  0  0  0  0  0  0  0
    0.9111    7.4201   -1.6031 H   0  0  0  0  0  0  0  0  0  0  0  0
   -0.5909    9.3186   -1.6345 H   0  0  0  0  0  0  0  0  0  0  0  0
   -2.8208    7.6428    1.6536 H   0  0  0  0  0  0  0  0  0  0  0  0
   -1.2851    5.7432    1.7210 H   0  0  0  0  0  0  0  0  0  0  0  0
  1  2  1  0  0  0  0
  1 21  1  0  0  0  0
  1 22  1  0  0  0  0
  1 23  1  0  0  0  0
  2  3  1  0  0  0  0
  3  4  2  0  0  0  0
  3  8  1  0  0  0  0
  4  5  1  0  0  0  0
  4 10  1  0  0  0  0
  5  6  2  0  0  0  0
  5 24  1  0  0  0  0
  6  7  1  0  0  0  0
  6  9  1  0  0  0  0
  7  8  2  0  0  0  0
  7 25  1  0  0  0  0
  8 26  1  0  0  0  0
 10 11  1  0  0  0  0
 10 27  1  0  0  0  0
 11 12  2  0  0  0  0
 11 13  1  0  0  0  0
 13 14  1  0  0  0  0
 13 28  1  0  0  0  0
 14 15  2  0  0  0  0
 14 19  1  0  0  0  0
 15 16  1  0  0  0  0
 15 29  1  0  0  0  0
 16 17  2  0  0  0  0
 16 30  1  0  0  0  0
 17 18  1  0  0  0  0
 17 20  1  0  0  0  0
 18 19  2  0  0  0  0
 18 31  1  0  0  0  0
 19 32  1  0  0  0  0
M  END
