
 OpenBabel10072620213D

 52 56  0  0  0  0  0  0  0  0999 V2000
    0.5728    1.3102    4.5836 C   0  0  0  0  0  0  0  0  0  0  0  0
    1.9637    1.5679    4.4355 O   0  0  0  0  0  0  0  0  0  0  0  0
    2.7620    0.5038    4.1070 C   0  0  0  0  0  0  0  0  0  0  0  0
    2.3110   -0.7605    3.7138 C   0  0  0  0  0  0  0  0  0  0  0  0
    3.2313   -1.7645    3.4079 C   0  0  0  0  0  0  0  0  0  0  0  0
    4.6000   -1.5094    3.5230 C   0  0  0  0  0  0  0  0  0  0  0  0
    5.0671   -0.2444    3.8896 C   0  0  0  0  0  0  0  0  0  0  0  0
    4.1362    0.7604    4.1752 C   0  0  0  0  0  0  0  0  0  0  0  0
    6.4593    0.0145    3.9106 N   0  0  0  0  0  0  0  0  0  0  0  0
    7.0676    0.9754    3.0556 C   0  0  0  0  0  0  0  0  0  0  0  0
    6.3900    1.4457    1.9849 N   0  0  0  0  0  0  0  0  0  0  0  0
    7.0455    2.2687    1.1481 C   0  0  0  0  0  0  0  0  0  0  0  0
    6.4062    2.7128   -0.0019 C   0  0  0  0  0  0  0  0  0  0  0  0
    7.0677    3.5060   -0.9389 C   0  0  0  0  0  0  0  0  0  0  0  0
    8.3823    3.8884   -0.7035 C   0  0  0  0  0  0  0  0  0  0  0  0
    9.0221    3.4845    0.4703 C   0  0  0  0  0  0  0  0  0  0  0  0
    8.3863    2.6636    1.3919 C   0  0  0  0  0  0  0  0  0  0  0  0
    9.0649    2.2316    2.4711 N   0  0  0  0  0  0  0  0  0  0  0  0
    8.4030    1.3673    3.2678 C   0  0  0  0  0  0  0  0  0  0  0  0
    9.1547    0.8868    4.3674 N   0  0  0  0  0  0  0  0  0  0  0  0
    9.3932    1.9879    5.6093 S   0  0  0  0  0  0  0  0  0  0  0  0
    8.2250    2.8409    5.7063 O   0  0  0  0  0  0  0  0  0  0  0  0
    9.8305    1.2254    6.7591 O   0  0  0  0  0  0  0  0  0  0  0  0
   10.7493    2.9584    5.0775 C   0  0  0  0  0  0  0  0  0  0  0  0
   10.6403    4.3653    5.0129 C   0  0  0  0  0  0  0  0  0  0  0  0
   11.6787    5.1928    4.5326 C   0  0  0  0  0  0  0  0  0  0  0  0
   12.9131    4.6848    4.0932 C   0  0  0  0  0  0  0  0  0  0  0  0
   13.0773    3.2784    4.1499 C   0  0  0  0  0  0  0  0  0  0  0  0
   14.1797    2.6071    3.7820 N   0  0  0  0  0  0  0  0  0  0  0  0
   13.8491    0.9981    4.0187 S   0  0  0  0  0  0  0  0  0  0  0  0
   12.3054    1.0829    4.6172 N   0  0  0  0  0  0  0  0  0  0  0  0
   11.9676    2.3834    4.6510 C   0  0  0  0  0  0  0  0  0  0  0  0
    2.9282   -3.0334    2.9928 O   0  0  0  0  0  0  0  0  0  0  0  0
    1.5972   -3.2693    2.5495 C   0  0  0  0  0  0  0  0  0  0  0  0
    0.0990    2.2178    4.9718 H   0  0  0  0  0  0  0  0  0  0  0  0
    0.3926    0.5071    5.3063 H   0  0  0  0  0  0  0  0  0  0  0  0
    0.1155    1.0818    3.6154 H   0  0  0  0  0  0  0  0  0  0  0  0
    1.2506   -0.9658    3.6512 H   0  0  0  0  0  0  0  0  0  0  0  0
    5.2995   -2.3043    3.2805 H   0  0  0  0  0  0  0  0  0  0  0  0
    4.4782    1.7530    4.4640 H   0  0  0  0  0  0  0  0  0  0  0  0
    6.9760   -0.8556    3.8159 H   0  0  0  0  0  0  0  0  0  0  0  0
    5.3762    2.4126   -0.1810 H   0  0  0  0  0  0  0  0  0  0  0  0
    6.5553    3.8168   -1.8467 H   0  0  0  0  0  0  0  0  0  0  0  0
    8.9141    4.4973   -1.4297 H   0  0  0  0  0  0  0  0  0  0  0  0
   10.0473    3.7945    0.6593 H   0  0  0  0  0  0  0  0  0  0  0  0
    8.9049   -0.0155    4.7596 H   0  0  0  0  0  0  0  0  0  0  0  0
    9.7123    4.8412    5.3356 H   0  0  0  0  0  0  0  0  0  0  0  0
   11.5106    6.2701    4.5020 H   0  0  0  0  0  0  0  0  0  0  0  0
   13.7062    5.3280    3.7325 H   0  0  0  0  0  0  0  0  0  0  0  0
    1.5751   -4.2508    2.0635 H   0  0  0  0  0  0  0  0  0  0  0  0
    1.2819   -2.5269    1.8086 H   0  0  0  0  0  0  0  0  0  0  0  0
    0.9080   -3.2995    3.3992 H   0  0  0  0  0  0  0  0  0  0  0  0
  1  2  1  0  0  0  0
  1 35  1  0  0  0  0
  1 36  1  0  0  0  0
  1 37  1  0  0  0  0
  2  3  1  0  0  0  0
  3  4  2  0  0  0  0
  3  8  1  0  0  0  0
  4  5  1  0  0  0  0
  4 38  1  0  0  0  0
  5  6  2  0  0  0  0
  5 33  1  0  0  0  0
  6  7  1  0  0  0  0
  6 39  1  0  0  0  0
  7  8  2  0  0  0  0
  7  9  1  0  0  0  0
  8 40  1  0  0  0  0
  9 10  1  0  0  0  0
  9 41  1  0  0  0  0
 10 11  2  0  0  0  0
 10 19  1  0  0  0  0
 11 12  1  0  0  0  0
 12 13  2  0  0  0  0
 12 17  1  0  0  0  0
 13 14  1  0  0  0  0
 13 42  1  0  0  0  0
 14 15  2  0  0  0  0
 14 43  1  0  0  0  0
 15 16  1  0  0  0  0
 15 44  1  0  0  0  0
 16 17  2  0  0  0  0
 16 45  1  0  0  0  0
 17 18  1  0  0  0  0
 18 19  2  0  0  0  0
 19 20  1  0  0  0  0
 20 21  1  0  0  0  0
 20 46  1  0  0  0  0
 21 22  2  0  0  0  0
 21 23  2  0  0  0  0
 21 24  1  0  0  0  0
 24 25  2  0  0  0  0
 24 32  1  0  0  0  0
 25 26  1  0  0  0  0
 25 47  1  0  0  0  0
 26 27  2  0  0  0  0
 26 48  1  0  0  0  0
 27 28  1  0  0  0  0
 27 49  1  0  0  0  0
 28 29  2  0  0  0  0
 28 32  1  0  0  0  0
 29 30  1  0  0  0  0
 30 31  1  0  0  0  0
 31 32  2  0  0  0  0
 33 34  1  0  0  0  0
 34 50  1  0  0  0  0
 34 51  1  0  0  0  0
 34 52  1  0  0  0  0
M  END
