
 OpenBabel10072620093D

 50 52  0  0  1  0  0  0  0  0999 V2000
    0.9726    0.0316   -0.4341 C   0  0  0  0  0  0  0  0  0  0  0  0
    2.2572    0.3035    0.3376 C   0  0  0  0  0  0  0  0  0  0  0  0
    2.7324   -0.9139    1.0200 N   0  0  0  0  0  0  0  0  0  0  0  0
    1.9105   -1.3691    2.1634 C   0  0  0  0  0  0  0  0  0  0  0  0
    1.1847   -2.6574    1.8095 C   0  0  0  0  0  0  0  0  0  0  0  0
    4.1055   -0.9654    1.3074 C   0  0  0  0  0  0  0  0  0  0  0  0
    4.8464    0.1424    1.7273 C   0  0  0  0  0  0  0  0  0  0  0  0
    6.2164    0.0418    2.0085 C   0  0  0  0  0  0  0  0  0  0  0  0
    6.8908   -1.1781    1.8687 C   0  0  0  0  0  0  0  0  0  0  0  0
    6.1399   -2.2988    1.4765 C   0  0  0  0  0  0  0  0  0  0  0  0
    4.7725   -2.1896    1.2038 C   0  0  0  0  0  0  0  0  0  0  0  0
    8.3924   -1.3387    2.0751 C   0  0  3  0  0  0  0  0  0  0  0  0
    8.8939   -0.7730    3.4267 C   0  0  3  0  0  0  0  0  0  0  0  0
    9.1235    0.7246    3.3795 C   0  0  0  0  0  0  0  0  0  0  0  0
    8.9922    1.4402    4.3665 O   0  0  0  0  0  0  0  0  0  0  0  0
    9.4776    1.2801    2.1716 N   0  0  0  0  0  0  0  0  0  0  0  0
    9.3755    0.7033    0.9279 C   0  0  0  0  0  0  0  0  0  0  0  0
    9.4087    1.3843   -0.0909 O   0  0  0  0  0  0  0  0  0  0  0  0
    9.2518   -0.8040    0.9046 C   0  0  3  0  0  0  0  0  0  0  0  0
    8.8280   -1.3876   -0.4093 N   0  3  0  0  0  0  0  0  0  0  0  0
    7.8269   -0.8369   -1.1476 C   0  0  0  0  0  0  0  0  0  0  0  0
    7.4468   -1.3928   -2.3643 C   0  0  0  0  0  0  0  0  0  0  0  0
    8.1114   -2.5118   -2.8425 C   0  0  0  0  0  0  0  0  0  0  0  0
    9.1414   -3.0589   -2.0927 C   0  0  0  0  0  0  0  0  0  0  0  0
    9.4799   -2.4840   -0.8738 C   0  0  0  0  0  0  0  0  0  0  0  0
   10.1652   -1.4143    3.7835 C   0  0  0  0  0  0  0  0  0  0  0  0
   11.1828   -1.9554    3.9009 N   0  0  0  0  0  0  0  0  0  0  0  0
    0.6847    0.9125   -1.0168 H   0  0  0  0  0  0  0  0  0  0  0  0
    0.1427   -0.2075    0.2381 H   0  0  0  0  0  0  0  0  0  0  0  0
    1.1000   -0.8077   -1.1257 H   0  0  0  0  0  0  0  0  0  0  0  0
    2.0976    1.1164    1.0555 H   0  0  0  0  0  0  0  0  0  0  0  0
    3.0061    0.6436   -0.3896 H   0  0  0  0  0  0  0  0  0  0  0  0
    1.1736   -0.6035    2.4358 H   0  0  0  0  0  0  0  0  0  0  0  0
    2.5149   -1.5348    3.0653 H   0  0  0  0  0  0  0  0  0  0  0  0
    0.5281   -2.5242    0.9446 H   0  0  0  0  0  0  0  0  0  0  0  0
    0.5701   -2.9885    2.6522 H   0  0  0  0  0  0  0  0  0  0  0  0
    1.8893   -3.4591    1.5693 H   0  0  0  0  0  0  0  0  0  0  0  0
    4.3545    1.1029    1.8697 H   0  0  0  0  0  0  0  0  0  0  0  0
    6.7026    0.9536    2.3431 H   0  0  0  0  0  0  0  0  0  0  0  0
    6.5941   -3.2830    1.3694 H   0  0  0  0  0  0  0  0  0  0  0  0
    4.2162   -3.0725    0.8911 H   0  0  0  0  0  0  0  0  0  0  0  0
    8.5673   -2.4257    2.1074 H   0  0  0  0  0  0  0  0  0  0  0  0
    8.1527   -0.9745    4.2102 H   0  0  0  0  0  0  0  0  0  0  0  0
    9.5823    2.2921    2.1850 H   0  0  0  0  0  0  0  0  0  0  0  0
   10.2874   -1.1471    1.0426 H   0  0  0  0  0  0  0  0  0  0  0  0
    7.3226    0.0452   -0.7635 H   0  0  0  0  0  0  0  0  0  0  0  0
    6.6370   -0.9473   -2.9389 H   0  0  0  0  0  0  0  0  0  0  0  0
    7.8277   -2.9528   -3.7972 H   0  0  0  0  0  0  0  0  0  0  0  0
    9.6786   -3.9321   -2.4565 H   0  0  0  0  0  0  0  0  0  0  0  0
   10.2802   -2.8995   -0.2664 H   0  0  0  0  0  0  0  0  0  0  0  0
  1  2  1  0  0  0  0
  1 28  1  0  0  0  0
  1 29  1  0  0  0  0
  1 30  1  0  0  0  0
  2  3  1  0  0  0  0
  2 31  1  0  0  0  0
  2 32  1  0  0  0  0
  3  4  1  0  0  0  0
  3  6  1  0  0  0  0
  4  5  1  0  0  0  0
  4 33  1  0  0  0  0
  4 34  1  0  0  0  0
  5 35  1  0  0  0  0
  5 36  1  0  0  0  0
  5 37  1  0  0  0  0
  6  7  2  0  0  0  0
  6 11  1  0  0  0  0
  7  8  1  0  0  0  0
  7 38  1  0  0  0  0
  8  9  2  0  0  0  0
  8 39  1  0  0  0  0
  9 10  1  0  0  0  0
  9 12  1  0  0  0  0
 10 11  2  0  0  0  0
 10 40  1  0  0  0  0
 11 41  1  0  0  0  0
 12 13  1  0  0  0  0
 12 19  1  0  0  0  0
 12 42  1  0  0  0  0
 13 14  1  0  0  0  0
 13 26  1  0  0  0  0
 13 43  1  0  0  0  0
 14 15  2  0  0  0  0
 14 16  1  0  0  0  0
 16 17  1  0  0  0  0
 16 44  1  0  0  0  0
 17 18  2  0  0  0  0
 17 19  1  0  0  0  0
 19 20  1  0  0  0  0
 19 45  1  0  0  0  0
 20 21  2  0  0  0  0
 20 25  1  0  0  0  0
 21 22  1  0  0  0  0
 21 46  1  0  0  0  0
 22 23  2  0  0  0  0
 22 47  1  0  0  0  0
 23 24  1  0  0  0  0
 23 48  1  0  0  0  0
 24 25  2  0  0  0  0
 24 49  1  0  0  0  0
 25 50  1  0  0  0  0
 26 27  3  0  0  0  0
M  CHG  1  20   1
M  END
