
 OpenBabel10072620003D

 62 62  0  0  1  0  0  0  0  0999 V2000
    5.6812    5.0425    2.6144 C   0  0  0  0  0  0  0  0  0  0  0  0
    6.5570    4.1954    3.5241 C   0  0  0  0  0  0  0  0  0  0  0  0
    6.6062    2.7392    3.0625 C   0  0  0  0  0  0  0  0  0  0  0  0
    7.4970    1.8935    3.9757 C   0  0  0  0  0  0  0  0  0  0  0  0
    7.5469    0.4403    3.5023 C   0  0  0  0  0  0  0  0  0  0  0  0
    8.4588   -0.4129    4.3859 C   0  0  0  0  0  0  0  0  0  0  0  0
    8.4997   -1.8610    3.8942 C   0  0  0  0  0  0  0  0  0  0  0  0
    9.4499   -2.7136    4.7360 C   0  0  0  0  0  0  0  0  0  0  0  0
    9.4864   -4.1312    4.2398 C   0  0  0  0  0  0  0  0  0  0  0  0
   10.3840   -4.6705    3.3988 C   0  0  0  0  0  0  0  0  0  0  0  0
   11.5330   -3.9688    2.7286 C   0  0  0  0  0  0  0  0  0  0  0  0
   12.9048   -4.4837    3.1782 C   0  0  0  0  0  0  0  0  0  0  0  0
   13.1783   -5.9255    2.7418 C   0  0  0  0  0  0  0  0  0  0  0  0
   14.6080   -6.3532    3.0790 C   0  0  0  0  0  0  0  0  0  0  0  0
   14.8695   -7.7847    2.6112 C   0  0  0  0  0  0  0  0  0  0  0  0
   16.2979   -8.2312    2.9191 C   0  0  0  0  0  0  0  0  0  0  0  0
   16.5452   -9.6483    2.4058 C   0  0  0  0  0  0  0  0  0  0  0  0
   17.9482  -10.1177    2.7066 C   0  0  0  0  0  0  0  0  0  0  0  0
   18.6622   -9.6783    3.5959 O   0  0  0  0  0  0  0  0  0  0  0  0
   18.2730  -11.1383    1.8657 O   0  0  0  0  0  0  0  0  0  0  0  0
   19.5833  -11.6980    2.0417 C   0  0  0  0  0  0  0  0  0  0  0  0
   19.5151  -12.8389    2.9994 C   0  0  3  0  0  0  0  0  0  0  0  0
   19.9245  -12.6831    4.4400 C   0  0  0  0  0  0  0  0  0  0  0  0
   20.7911  -13.2931    3.4715 O   0  0  0  0  0  0  0  0  0  0  0  0
    5.6644    6.0796    2.9642 H   0  0  0  0  0  0  0  0  0  0  0  0
    4.6512    4.6719    2.6025 H   0  0  0  0  0  0  0  0  0  0  0  0
    6.0602    5.0374    1.5874 H   0  0  0  0  0  0  0  0  0  0  0  0
    6.1684    4.2485    4.5477 H   0  0  0  0  0  0  0  0  0  0  0  0
    7.5696    4.6151    3.5384 H   0  0  0  0  0  0  0  0  0  0  0  0
    6.9865    2.6930    2.0345 H   0  0  0  0  0  0  0  0  0  0  0  0
    5.5915    2.3226    3.0505 H   0  0  0  0  0  0  0  0  0  0  0  0
    7.1158    1.9332    5.0033 H   0  0  0  0  0  0  0  0  0  0  0  0
    8.5106    2.3123    3.9903 H   0  0  0  0  0  0  0  0  0  0  0  0
    7.9067    0.4068    2.4667 H   0  0  0  0  0  0  0  0  0  0  0  0
    6.5342    0.0193    3.5062 H   0  0  0  0  0  0  0  0  0  0  0  0
    8.1018   -0.3863    5.4223 H   0  0  0  0  0  0  0  0  0  0  0  0
    9.4720    0.0068    4.3809 H   0  0  0  0  0  0  0  0  0  0  0  0
    8.8192   -1.8789    2.8443 H   0  0  0  0  0  0  0  0  0  0  0  0
    7.4889   -2.2874    3.9255 H   0  0  0  0  0  0  0  0  0  0  0  0
    9.1179   -2.7226    5.7817 H   0  0  0  0  0  0  0  0  0  0  0  0
   10.4525   -2.2725    4.7429 H   0  0  0  0  0  0  0  0  0  0  0  0
    8.6918   -4.7753    4.6149 H   0  0  0  0  0  0  0  0  0  0  0  0
   10.2557   -5.7198    3.1353 H   0  0  0  0  0  0  0  0  0  0  0  0
   11.4939   -2.8894    2.9076 H   0  0  0  0  0  0  0  0  0  0  0  0
   11.4293   -4.0943    1.6437 H   0  0  0  0  0  0  0  0  0  0  0  0
   12.9967   -4.4033    4.2685 H   0  0  0  0  0  0  0  0  0  0  0  0
   13.6727   -3.8290    2.7469 H   0  0  0  0  0  0  0  0  0  0  0  0
   13.0159   -6.0176    1.6611 H   0  0  0  0  0  0  0  0  0  0  0  0
   12.4761   -6.6077    3.2346 H   0  0  0  0  0  0  0  0  0  0  0  0
   14.7701   -6.2803    4.1610 H   0  0  0  0  0  0  0  0  0  0  0  0
   15.3201   -5.6730    2.5966 H   0  0  0  0  0  0  0  0  0  0  0  0
   14.6900   -7.8528    1.5315 H   0  0  0  0  0  0  0  0  0  0  0  0
   14.1608   -8.4649    3.0991 H   0  0  0  0  0  0  0  0  0  0  0  0
   16.4738   -8.1872    4.0011 H   0  0  0  0  0  0  0  0  0  0  0  0
   17.0141   -7.5417    2.4545 H   0  0  0  0  0  0  0  0  0  0  0  0
   16.3941   -9.6678    1.3200 H   0  0  0  0  0  0  0  0  0  0  0  0
   15.8459  -10.3530    2.8688 H   0  0  0  0  0  0  0  0  0  0  0  0
   20.3106  -10.9331    2.3395 H   0  0  0  0  0  0  0  0  0  0  0  0
   19.9002  -12.0701    1.0619 H   0  0  0  0  0  0  0  0  0  0  0  0
   18.7832  -13.5871    2.7289 H   0  0  0  0  0  0  0  0  0  0  0  0
   19.4667  -13.3300    5.1774 H   0  0  0  0  0  0  0  0  0  0  0  0
   20.1890  -11.6976    4.8040 H   0  0  0  0  0  0  0  0  0  0  0  0
  1  2  1  0  0  0  0
  1 25  1  0  0  0  0
  1 26  1  0  0  0  0
  1 27  1  0  0  0  0
  2  3  1  0  0  0  0
  2 28  1  0  0  0  0
  2 29  1  0  0  0  0
  3  4  1  0  0  0  0
  3 30  1  0  0  0  0
  3 31  1  0  0  0  0
  4  5  1  0  0  0  0
  4 32  1  0  0  0  0
  4 33  1  0  0  0  0
  5  6  1  0  0  0  0
  5 34  1  0  0  0  0
  5 35  1  0  0  0  0
  6  7  1  0  0  0  0
  6 36  1  0  0  0  0
  6 37  1  0  0  0  0
  7  8  1  0  0  0  0
  7 38  1  0  0  0  0
  7 39  1  0  0  0  0
  8  9  1  0  0  0  0
  8 40  1  0  0  0  0
  8 41  1  0  0  0  0
  9 10  2  0  0  0  0
  9 42  1  0  0  0  0
 10 11  1  0  0  0  0
 10 43  1  0  0  0  0
 11 12  1  0  0  0  0
 11 44  1  0  0  0  0
 11 45  1  0  0  0  0
 12 13  1  0  0  0  0
 12 46  1  0  0  0  0
 12 47  1  0  0  0  0
 13 14  1  0  0  0  0
 13 48  1  0  0  0  0
 13 49  1  0  0  0  0
 14 15  1  0  0  0  0
 14 50  1  0  0  0  0
 14 51  1  0  0  0  0
 15 16  1  0  0  0  0
 15 52  1  0  0  0  0
 15 53  1  0  0  0  0
 16 17  1  0  0  0  0
 16 54  1  0  0  0  0
 16 55  1  0  0  0  0
 17 18  1  0  0  0  0
 17 56  1  0  0  0  0
 17 57  1  0  0  0  0
 18 19  2  0  0  0  0
 18 20  1  0  0  0  0
 20 21  1  0  0  0  0
 21 22  1  0  0  0  0
 21 58  1  0  0  0  0
 21 59  1  0  0  0  0
 22 23  1  0  0  0  0
 22 24  1  0  0  0  0
 22 60  1  0  0  0  0
 23 24  1  0  0  0  0
 23 61  1  0  0  0  0
 23 62  1  0  0  0  0
M  END
