
 OpenBabel10072619503D

 44 45  0  0  1  0  0  0  0  0999 V2000
    8.7480    5.7112   -5.8400 C   0  0  0  0  0  0  0  0  0  0  0  0
    8.4717    4.2244   -5.7150 C   0  0  0  0  0  0  0  0  0  0  0  0
    7.0503    3.9367   -5.6925 N   0  0  0  0  0  0  0  0  0  0  0  0
    6.2728    3.7557   -4.5860 C   0  0  0  0  0  0  0  0  0  0  0  0
    5.0138    3.4766   -5.0684 C   0  0  0  0  0  0  0  0  0  0  0  0
    5.1260    3.5215   -6.4639 C   0  0  0  0  0  0  0  0  0  0  0  0
    6.3706    3.8215   -6.8520 N   0  0  0  0  0  0  0  0  0  0  0  0
    3.5932    3.1489   -4.1764 S   0  0  0  0  0  0  0  0  0  0  0  0
    2.5780    2.8794   -5.1660 O   0  0  0  0  0  0  0  0  0  0  0  0
    4.0144    2.1537   -3.2160 O   0  0  0  0  0  0  0  0  0  0  0  0
    3.1858    4.5124   -3.2896 N   0  0  0  0  0  0  0  0  0  0  0  0
    3.0142    5.8200   -3.9645 C   0  0  3  0  0  0  0  0  0  0  0  0
    1.7971    5.8273   -4.8870 C   0  0  0  0  0  0  0  0  0  0  0  0
    2.8651    6.9318   -2.9261 C   0  0  0  0  0  0  0  0  0  0  0  0
    3.5227    8.1675   -3.0711 C   0  0  0  0  0  0  0  0  0  0  0  0
    3.3465    9.1573   -2.0975 C   0  0  0  0  0  0  0  0  0  0  0  0
    2.5144    8.9396   -0.9911 C   0  0  0  0  0  0  0  0  0  0  0  0
    1.8456    7.7295   -0.8433 C   0  0  0  0  0  0  0  0  0  0  0  0
    2.0181    6.7400   -1.8128 C   0  0  0  0  0  0  0  0  0  0  0  0
    1.0037    7.3914    0.1785 O   0  0  0  0  0  0  0  0  0  0  0  0
    0.8624    8.3287    1.2387 C   0  0  0  0  0  0  0  0  0  0  0  0
    4.3112    8.3106   -4.1828 O   0  0  0  0  0  0  0  0  0  0  0  0
    4.8341    9.6072   -4.4513 C   0  0  0  0  0  0  0  0  0  0  0  0
    9.8257    5.8986   -5.8543 H   0  0  0  0  0  0  0  0  0  0  0  0
    8.3156    6.2641   -4.9994 H   0  0  0  0  0  0  0  0  0  0  0  0
    8.3181    6.1170   -6.7615 H   0  0  0  0  0  0  0  0  0  0  0  0
    8.9054    3.8302   -4.7895 H   0  0  0  0  0  0  0  0  0  0  0  0
    8.9102    3.6722   -6.5534 H   0  0  0  0  0  0  0  0  0  0  0  0
    6.6671    3.8181   -3.5812 H   0  0  0  0  0  0  0  0  0  0  0  0
    4.3624    3.3558   -7.2145 H   0  0  0  0  0  0  0  0  0  0  0  0
    3.7521    4.5621   -2.4428 H   0  0  0  0  0  0  0  0  0  0  0  0
    3.9191    6.0067   -4.5518 H   0  0  0  0  0  0  0  0  0  0  0  0
    0.8989    5.4610   -4.3772 H   0  0  0  0  0  0  0  0  0  0  0  0
    1.9588    5.1993   -5.7675 H   0  0  0  0  0  0  0  0  0  0  0  0
    1.5858    6.8366   -5.2581 H   0  0  0  0  0  0  0  0  0  0  0  0
    3.8475   10.1181   -2.1636 H   0  0  0  0  0  0  0  0  0  0  0  0
    2.4078    9.7424   -0.2691 H   0  0  0  0  0  0  0  0  0  0  0  0
    1.4817    5.7987   -1.6958 H   0  0  0  0  0  0  0  0  0  0  0  0
    0.1917    7.8887    1.9830 H   0  0  0  0  0  0  0  0  0  0  0  0
    0.4030    9.2577    0.8853 H   0  0  0  0  0  0  0  0  0  0  0  0
    1.8231    8.5215    1.7286 H   0  0  0  0  0  0  0  0  0  0  0  0
    4.0326   10.3480   -4.5448 H   0  0  0  0  0  0  0  0  0  0  0  0
    5.3600    9.5644   -5.4099 H   0  0  0  0  0  0  0  0  0  0  0  0
    5.5604    9.9030   -3.6872 H   0  0  0  0  0  0  0  0  0  0  0  0
  1  2  1  0  0  0  0
  1 24  1  0  0  0  0
  1 25  1  0  0  0  0
  1 26  1  0  0  0  0
  2  3  1  0  0  0  0
  2 27  1  0  0  0  0
  2 28  1  0  0  0  0
  3  4  1  0  0  0  0
  3  7  1  0  0  0  0
  4  5  2  0  0  0  0
  4 29  1  0  0  0  0
  5  6  1  0  0  0  0
  5  8  1  0  0  0  0
  6  7  2  0  0  0  0
  6 30  1  0  0  0  0
  8  9  2  0  0  0  0
  8 10  2  0  0  0  0
  8 11  1  0  0  0  0
 11 12  1  0  0  0  0
 11 31  1  0  0  0  0
 12 13  1  0  0  0  0
 12 14  1  0  0  0  0
 12 32  1  0  0  0  0
 13 33  1  0  0  0  0
 13 34  1  0  0  0  0
 13 35  1  0  0  0  0
 14 15  2  0  0  0  0
 14 19  1  0  0  0  0
 15 16  1  0  0  0  0
 15 22  1  0  0  0  0
 16 17  2  0  0  0  0
 16 36  1  0  0  0  0
 17 18  1  0  0  0  0
 17 37  1  0  0  0  0
 18 19  2  0  0  0  0
 18 20  1  0  0  0  0
 19 38  1  0  0  0  0
 20 21  1  0  0  0  0
 21 39  1  0  0  0  0
 21 40  1  0  0  0  0
 21 41  1  0  0  0  0
 22 23  1  0  0  0  0
 23 42  1  0  0  0  0
 23 43  1  0  0  0  0
 23 44  1  0  0  0  0
M  END
