
 OpenBabel10072620073D

 44 45  0  0  0  0  0  0  0  0999 V2000
    1.0925    0.6901   -0.9898 C   0  0  0  0  0  0  0  0  0  0  0  0
    2.4418    0.5204   -0.5758 O   0  0  0  0  0  0  0  0  0  0  0  0
    3.1922   -0.3965   -1.2636 C   0  0  0  0  0  0  0  0  0  0  0  0
    2.9758   -0.6919   -2.6114 C   0  0  0  0  0  0  0  0  0  0  0  0
    3.8112   -1.6034   -3.2697 C   0  0  0  0  0  0  0  0  0  0  0  0
    4.9001   -2.1814   -2.6063 C   0  0  0  0  0  0  0  0  0  0  0  0
    5.1355   -1.8853   -1.2620 C   0  0  0  0  0  0  0  0  0  0  0  0
    4.2694   -1.0002   -0.5855 C   0  0  0  0  0  0  0  0  0  0  0  0
    4.5780   -0.7271    0.7289 O   0  0  0  0  0  0  0  0  0  0  0  0
    3.4732   -0.8271    1.6225 C   0  0  0  0  0  0  0  0  0  0  0  0
    6.1608   -2.4137   -0.5186 O   0  0  0  0  0  0  0  0  0  0  0  0
    7.0030   -3.3820   -1.1308 C   0  0  0  0  0  0  0  0  0  0  0  0
    3.5595   -1.9658   -4.6912 C   0  0  0  0  0  0  0  0  0  0  0  0
    4.5058   -2.2040   -5.4276 O   0  0  0  0  0  0  0  0  0  0  0  0
    2.2148   -2.1702   -4.9960 N   0  0  0  0  0  0  0  0  0  0  0  0
    1.5786   -2.1449   -6.2189 C   0  0  0  0  0  0  0  0  0  0  0  0
    2.1989   -1.5612   -7.6547 S   0  0  0  0  0  0  0  0  0  0  0  0
    0.2631   -2.5425   -6.2158 N   0  0  0  0  0  0  0  0  0  0  0  0
   -0.4558   -3.3797   -5.3362 C   0  0  0  0  0  0  0  0  0  0  0  0
    0.1409   -4.2438   -4.4136 C   0  0  0  0  0  0  0  0  0  0  0  0
   -0.6667   -5.0591   -3.6012 C   0  0  0  0  0  0  0  0  0  0  0  0
   -2.0601   -5.0408   -3.7185 C   0  0  0  0  0  0  0  0  0  0  0  0
   -2.6486   -4.1932   -4.6526 C   0  0  0  0  0  0  0  0  0  0  0  0
   -1.8510   -3.3751   -5.4588 C   0  0  0  0  0  0  0  0  0  0  0  0
   -0.0397   -5.9365   -2.6091 N   0  3  0  0  0  0  0  0  0  0  0  0
    1.1334   -5.6912   -2.2921 O   0  0  0  0  0  0  0  0  0  0  0  0
   -0.7226   -6.8554   -2.1353 O   0  5  0  0  0  0  0  0  0  0  0  0
    0.5537    1.1764   -0.1711 H   0  0  0  0  0  0  0  0  0  0  0  0
    0.6016   -0.2691   -1.1850 H   0  0  0  0  0  0  0  0  0  0  0  0
    1.0382    1.3430   -1.8655 H   0  0  0  0  0  0  0  0  0  0  0  0
    2.1976   -0.1812   -3.1694 H   0  0  0  0  0  0  0  0  0  0  0  0
    5.5499   -2.8516   -3.1620 H   0  0  0  0  0  0  0  0  0  0  0  0
    3.8433   -1.2411    2.5644 H   0  0  0  0  0  0  0  0  0  0  0  0
    2.6797   -1.4896    1.2576 H   0  0  0  0  0  0  0  0  0  0  0  0
    3.0742    0.1698    1.8335 H   0  0  0  0  0  0  0  0  0  0  0  0
    7.7503   -3.6923   -0.3927 H   0  0  0  0  0  0  0  0  0  0  0  0
    7.5391   -2.9589   -1.9860 H   0  0  0  0  0  0  0  0  0  0  0  0
    6.4344   -4.2718   -1.4203 H   0  0  0  0  0  0  0  0  0  0  0  0
    1.5717   -2.1313   -4.2200 H   0  0  0  0  0  0  0  0  0  0  0  0
   -0.2312   -2.2418   -7.0533 H   0  0  0  0  0  0  0  0  0  0  0  0
    1.2212   -4.3425   -4.3486 H   0  0  0  0  0  0  0  0  0  0  0  0
   -2.6917   -5.6769   -3.1009 H   0  0  0  0  0  0  0  0  0  0  0  0
   -3.7311   -4.1654   -4.7561 H   0  0  0  0  0  0  0  0  0  0  0  0
   -2.3367   -2.7200   -6.1796 H   0  0  0  0  0  0  0  0  0  0  0  0
  1  2  1  0  0  0  0
  1 28  1  0  0  0  0
  1 29  1  0  0  0  0
  1 30  1  0  0  0  0
  2  3  1  0  0  0  0
  3  4  2  0  0  0  0
  3  8  1  0  0  0  0
  4  5  1  0  0  0  0
  4 31  1  0  0  0  0
  5  6  2  0  0  0  0
  5 13  1  0  0  0  0
  6  7  1  0  0  0  0
  6 32  1  0  0  0  0
  7  8  2  0  0  0  0
  7 11  1  0  0  0  0
  8  9  1  0  0  0  0
  9 10  1  0  0  0  0
 10 33  1  0  0  0  0
 10 34  1  0  0  0  0
 10 35  1  0  0  0  0
 11 12  1  0  0  0  0
 12 36  1  0  0  0  0
 12 37  1  0  0  0  0
 12 38  1  0  0  0  0
 13 14  2  0  0  0  0
 13 15  1  0  0  0  0
 15 16  1  0  0  0  0
 15 39  1  0  0  0  0
 16 17  2  0  0  0  0
 16 18  1  0  0  0  0
 18 19  1  0  0  0  0
 18 40  1  0  0  0  0
 19 20  2  0  0  0  0
 19 24  1  0  0  0  0
 20 21  1  0  0  0  0
 20 41  1  0  0  0  0
 21 22  2  0  0  0  0
 21 25  1  0  0  0  0
 22 23  1  0  0  0  0
 22 42  1  0  0  0  0
 23 24  2  0  0  0  0
 23 43  1  0  0  0  0
 24 44  1  0  0  0  0
 25 26  2  0  0  0  0
 25 27  1  0  0  0  0
M  CHG  2  25   1  27  -1
M  END
