
 OpenBabel10072619573D

 41 43  0  0  1  0  0  0  0  0999 V2000
    0.5570    3.9238    3.3545 C   0  0  0  0  0  0  0  0  0  0  0  0
    1.1364    4.1493    1.9676 C   0  0  0  0  0  0  0  0  0  0  0  0
    0.6864    2.9133    1.2092 C   0  0  0  0  0  0  0  0  0  0  0  0
   -0.7604    2.7120    1.6721 C   0  0  0  0  0  0  0  0  0  0  0  0
   -0.7873    3.2311    3.1211 C   0  0  0  0  0  0  0  0  0  0  0  0
   -1.2067    1.2493    1.5329 C   0  0  0  0  0  0  0  0  0  0  0  0
   -2.7058    1.0284    1.8088 C   0  0  3  0  0  0  0  0  0  0  0  0
   -2.9648   -0.3997    1.8180 N   0  0  0  0  0  0  0  0  0  0  0  0
   -4.2908   -0.8298    1.9422 C   0  0  0  0  0  0  0  0  0  0  0  0
   -4.5400   -2.1613    2.3022 C   0  0  0  0  0  0  0  0  0  0  0  0
   -5.8444   -2.6782    2.3497 C   0  0  0  0  0  0  0  0  0  0  0  0
   -6.9253   -1.8661    2.0004 C   0  0  0  0  0  0  0  0  0  0  0  0
   -6.7014   -0.5442    1.6007 C   0  0  0  0  0  0  0  0  0  0  0  0
   -5.3898   -0.0524    1.5722 C   0  0  0  0  0  0  0  0  0  0  0  0
   -5.1136    1.5990    1.0291 S   0  0  0  0  0  0  0  0  0  0  0  0
   -5.3802    2.4696    2.1506 O   0  0  0  0  0  0  0  0  0  0  0  0
   -5.7714    1.7560   -0.2493 O   0  0  0  0  0  0  0  0  0  0  0  0
   -3.4703    1.6027    0.7271 N   0  0  0  0  0  0  0  0  0  0  0  0
   -8.5630   -2.5219    2.0644 S   0  0  0  0  0  0  0  0  0  0  0  0
   -8.7244   -3.4817    0.9979 O   0  0  0  0  0  0  0  0  0  0  0  0
   -8.8943   -2.7898    3.4436 O   0  0  0  0  0  0  0  0  0  0  0  0
   -9.5630   -1.2362    1.6378 N   0  0  0  0  0  0  0  0  0  0  0  0
   -6.0117   -4.3194    2.8574 Cl  0  0  0  0  0  0  0  0  0  0  0  0
    0.4524    4.8549    3.9195 H   0  0  0  0  0  0  0  0  0  0  0  0
    1.2180    3.2605    3.9263 H   0  0  0  0  0  0  0  0  0  0  0  0
    2.2256    4.2543    1.9808 H   0  0  0  0  0  0  0  0  0  0  0  0
    0.7066    5.0530    1.5198 H   0  0  0  0  0  0  0  0  0  0  0  0
    1.3121    2.0551    1.4810 H   0  0  0  0  0  0  0  0  0  0  0  0
    0.7541    3.0478    0.1255 H   0  0  0  0  0  0  0  0  0  0  0  0
   -1.4017    3.3604    1.0596 H   0  0  0  0  0  0  0  0  0  0  0  0
   -0.9352    2.4321    3.8562 H   0  0  0  0  0  0  0  0  0  0  0  0
   -1.6145    3.9409    3.2443 H   0  0  0  0  0  0  0  0  0  0  0  0
   -0.6125    0.6356    2.2251 H   0  0  0  0  0  0  0  0  0  0  0  0
   -0.9587    0.8931    0.5228 H   0  0  0  0  0  0  0  0  0  0  0  0
   -2.9651    1.4729    2.7774 H   0  0  0  0  0  0  0  0  0  0  0  0
   -2.3418   -0.8968    2.4531 H   0  0  0  0  0  0  0  0  0  0  0  0
   -3.7053   -2.8162    2.5466 H   0  0  0  0  0  0  0  0  0  0  0  0
   -7.5237    0.1045    1.3058 H   0  0  0  0  0  0  0  0  0  0  0  0
   -3.2656    1.2033   -0.1863 H   0  0  0  0  0  0  0  0  0  0  0  0
  -10.0608   -1.4718    0.7760 H   0  0  0  0  0  0  0  0  0  0  0  0
  -10.1922   -1.0428    2.4204 H   0  0  0  0  0  0  0  0  0  0  0  0
  1  2  1  0  0  0  0
  1  5  1  0  0  0  0
  1 24  1  0  0  0  0
  1 25  1  0  0  0  0
  2  3  1  0  0  0  0
  2 26  1  0  0  0  0
  2 27  1  0  0  0  0
  3  4  1  0  0  0  0
  3 28  1  0  0  0  0
  3 29  1  0  0  0  0
  4  5  1  0  0  0  0
  4  6  1  0  0  0  0
  4 30  1  0  0  0  0
  5 31  1  0  0  0  0
  5 32  1  0  0  0  0
  6  7  1  0  0  0  0
  6 33  1  0  0  0  0
  6 34  1  0  0  0  0
  7  8  1  0  0  0  0
  7 18  1  0  0  0  0
  7 35  1  0  0  0  0
  8  9  1  0  0  0  0
  8 36  1  0  0  0  0
  9 10  2  0  0  0  0
  9 14  1  0  0  0  0
 10 11  1  0  0  0  0
 10 37  1  0  0  0  0
 11 12  2  0  0  0  0
 11 23  1  0  0  0  0
 12 13  1  0  0  0  0
 12 19  1  0  0  0  0
 13 14  2  0  0  0  0
 13 38  1  0  0  0  0
 14 15  1  0  0  0  0
 15 16  2  0  0  0  0
 15 17  2  0  0  0  0
 15 18  1  0  0  0  0
 18 39  1  0  0  0  0
 19 20  2  0  0  0  0
 19 21  2  0  0  0  0
 19 22  1  0  0  0  0
 22 40  1  0  0  0  0
 22 41  1  0  0  0  0
M  END
