
 OpenBabel10072620203D

 32 33  0  0  0  0  0  0  0  0999 V2000
   -1.2563   -1.6684    1.8096 C   0  0  0  0  0  0  0  0  0  0  0  0
   -0.7201   -0.7877    0.7140 C   0  0  0  0  0  0  0  0  0  0  0  0
   -1.2603    0.5044    0.5734 C   0  0  0  0  0  0  0  0  0  0  0  0
   -0.8035    1.3713   -0.4182 C   0  0  0  0  0  0  0  0  0  0  0  0
    0.2064    0.9654   -1.2818 C   0  0  0  0  0  0  0  0  0  0  0  0
    0.7618   -0.3080   -1.1480 C   0  0  0  0  0  0  0  0  0  0  0  0
    0.3152   -1.1989   -0.1525 C   0  0  0  0  0  0  0  0  0  0  0  0
    0.9830   -2.5256   -0.0349 C   0  0  0  0  0  0  0  0  0  0  0  0
    0.9580   -3.3348   -1.1119 C   0  0  0  0  0  0  0  0  0  0  0  0
    1.6775   -3.0225    1.1857 C   0  0  0  0  0  0  0  0  0  0  0  0
    1.2380   -4.2289    1.7666 C   0  0  0  0  0  0  0  0  0  0  0  0
    1.8188   -4.7241    2.9339 C   0  0  0  0  0  0  0  0  0  0  0  0
    2.8477   -4.0184    3.5465 C   0  0  0  0  0  0  0  0  0  0  0  0
    3.2995   -2.8243    2.9855 C   0  0  0  0  0  0  0  0  0  0  0  0
    2.7357   -2.3189    1.8001 C   0  0  0  0  0  0  0  0  0  0  0  0
    3.2787   -1.0279    1.2492 C   0  0  0  0  0  0  0  0  0  0  0  0
   -2.2132   -1.2916    2.1875 H   0  0  0  0  0  0  0  0  0  0  0  0
   -0.5551   -1.6987    2.6489 H   0  0  0  0  0  0  0  0  0  0  0  0
   -1.4443   -2.6821    1.4420 H   0  0  0  0  0  0  0  0  0  0  0  0
   -2.0481    0.8430    1.2434 H   0  0  0  0  0  0  0  0  0  0  0  0
   -1.2356    2.3643   -0.5131 H   0  0  0  0  0  0  0  0  0  0  0  0
    0.5695    1.6384   -2.0530 H   0  0  0  0  0  0  0  0  0  0  0  0
    1.5681   -0.5988   -1.8184 H   0  0  0  0  0  0  0  0  0  0  0  0
    0.4573   -3.0507   -2.0330 H   0  0  0  0  0  0  0  0  0  0  0  0
    1.4371   -4.3095   -1.1099 H   0  0  0  0  0  0  0  0  0  0  0  0
    0.4189   -4.7854    1.3138 H   0  0  0  0  0  0  0  0  0  0  0  0
    1.4611   -5.6540    3.3678 H   0  0  0  0  0  0  0  0  0  0  0  0
    3.2990   -4.3941    4.4606 H   0  0  0  0  0  0  0  0  0  0  0  0
    4.1047   -2.2846    3.4809 H   0  0  0  0  0  0  0  0  0  0  0  0
    4.2489   -0.7850    1.6969 H   0  0  0  0  0  0  0  0  0  0  0  0
    2.5942   -0.2028    1.4681 H   0  0  0  0  0  0  0  0  0  0  0  0
    3.4454   -1.1025    0.1702 H   0  0  0  0  0  0  0  0  0  0  0  0
  1  2  1  0  0  0  0
  1 17  1  0  0  0  0
  1 18  1  0  0  0  0
  1 19  1  0  0  0  0
  2  3  2  0  0  0  0
  2  7  1  0  0  0  0
  3  4  1  0  0  0  0
  3 20  1  0  0  0  0
  4  5  2  0  0  0  0
  4 21  1  0  0  0  0
  5  6  1  0  0  0  0
  5 22  1  0  0  0  0
  6  7  2  0  0  0  0
  6 23  1  0  0  0  0
  7  8  1  0  0  0  0
  8  9  2  0  0  0  0
  8 10  1  0  0  0  0
  9 24  1  0  0  0  0
  9 25  1  0  0  0  0
 10 11  2  0  0  0  0
 10 15  1  0  0  0  0
 11 12  1  0  0  0  0
 11 26  1  0  0  0  0
 12 13  2  0  0  0  0
 12 27  1  0  0  0  0
 13 14  1  0  0  0  0
 13 28  1  0  0  0  0
 14 15  2  0  0  0  0
 14 29  1  0  0  0  0
 15 16  1  0  0  0  0
 16 30  1  0  0  0  0
 16 31  1  0  0  0  0
 16 32  1  0  0  0  0
M  END
