
 OpenBabel10072620073D

 37 38  0  0  0  0  0  0  0  0999 V2000
    0.1092   -1.6285    2.4703 C   0  0  0  0  0  0  0  0  0  0  0  0
   -0.0849   -0.7194    1.2946 C   0  0  0  0  0  0  0  0  0  0  0  0
   -0.6625    0.5447    1.4575 C   0  0  0  0  0  0  0  0  0  0  0  0
   -0.8389    1.3986    0.3613 C   0  0  0  0  0  0  0  0  0  0  0  0
   -0.5068    0.9499   -0.9285 C   0  0  0  0  0  0  0  0  0  0  0  0
    0.0712   -0.3132   -1.0943 C   0  0  0  0  0  0  0  0  0  0  0  0
    0.2994   -1.1328    0.0143 C   0  0  0  0  0  0  0  0  0  0  0  0
   -0.9168    1.6951   -2.0061 O   0  0  0  0  0  0  0  0  0  0  0  0
    0.0656    1.8283   -3.0274 C   0  0  0  0  0  0  0  0  0  0  0  0
   -1.3910    2.6703    0.6279 N   0  0  0  0  0  0  0  0  0  0  0  0
   -1.0104    3.8236   -0.0069 C   0  0  0  0  0  0  0  0  0  0  0  0
   -0.0106    3.9912   -0.6963 O   0  0  0  0  0  0  0  0  0  0  0  0
   -1.8277    4.8946    0.2384 N   0  0  0  0  0  0  0  0  0  0  0  0
   -3.2655    4.7664    0.3469 C   0  0  0  0  0  0  0  0  0  0  0  0
   -3.9267    6.1007    0.4973 C   0  0  0  0  0  0  0  0  0  0  0  0
   -4.5882    6.4428    1.6730 C   0  0  0  0  0  0  0  0  0  0  0  0
   -5.2029    7.6284    1.8772 N   0  0  0  0  0  0  0  0  0  0  0  0
   -5.1497    8.5226    0.8663 C   0  0  0  0  0  0  0  0  0  0  0  0
   -4.5238    8.2793   -0.3467 C   0  0  0  0  0  0  0  0  0  0  0  0
   -3.9069    7.0475   -0.5316 C   0  0  0  0  0  0  0  0  0  0  0  0
   -0.1539   -1.1314    3.4096 H   0  0  0  0  0  0  0  0  0  0  0  0
    1.1563   -1.9373    2.5403 H   0  0  0  0  0  0  0  0  0  0  0  0
   -0.5247   -2.5147    2.3682 H   0  0  0  0  0  0  0  0  0  0  0  0
   -0.9490    0.8769    2.4519 H   0  0  0  0  0  0  0  0  0  0  0  0
    0.3130   -0.6929   -2.0830 H   0  0  0  0  0  0  0  0  0  0  0  0
    0.7552   -2.1102   -0.1286 H   0  0  0  0  0  0  0  0  0  0  0  0
    0.0343    0.9687   -3.7050 H   0  0  0  0  0  0  0  0  0  0  0  0
    1.0757    1.9613   -2.6254 H   0  0  0  0  0  0  0  0  0  0  0  0
   -0.1845    2.7192   -3.6111 H   0  0  0  0  0  0  0  0  0  0  0  0
   -1.7098    2.8313    1.5709 H   0  0  0  0  0  0  0  0  0  0  0  0
   -1.4858    5.7043   -0.2624 H   0  0  0  0  0  0  0  0  0  0  0  0
   -3.5101    4.1137    1.1924 H   0  0  0  0  0  0  0  0  0  0  0  0
   -3.6313    4.2722   -0.5603 H   0  0  0  0  0  0  0  0  0  0  0  0
   -4.6381    5.7554    2.5135 H   0  0  0  0  0  0  0  0  0  0  0  0
   -5.6315    9.4752    1.0644 H   0  0  0  0  0  0  0  0  0  0  0  0
   -4.5110    9.0336   -1.1252 H   0  0  0  0  0  0  0  0  0  0  0  0
   -3.4068    6.8305   -1.4741 H   0  0  0  0  0  0  0  0  0  0  0  0
  1  2  1  0  0  0  0
  1 21  1  0  0  0  0
  1 22  1  0  0  0  0
  1 23  1  0  0  0  0
  2  3  2  0  0  0  0
  2  7  1  0  0  0  0
  3  4  1  0  0  0  0
  3 24  1  0  0  0  0
  4  5  2  0  0  0  0
  4 10  1  0  0  0  0
  5  6  1  0  0  0  0
  5  8  1  0  0  0  0
  6  7  2  0  0  0  0
  6 25  1  0  0  0  0
  7 26  1  0  0  0  0
  8  9  1  0  0  0  0
  9 27  1  0  0  0  0
  9 28  1  0  0  0  0
  9 29  1  0  0  0  0
 10 11  1  0  0  0  0
 10 30  1  0  0  0  0
 11 12  2  0  0  0  0
 11 13  1  0  0  0  0
 13 14  1  0  0  0  0
 13 31  1  0  0  0  0
 14 15  1  0  0  0  0
 14 32  1  0  0  0  0
 14 33  1  0  0  0  0
 15 16  2  0  0  0  0
 15 20  1  0  0  0  0
 16 17  1  0  0  0  0
 16 34  1  0  0  0  0
 17 18  2  0  0  0  0
 18 19  1  0  0  0  0
 18 35  1  0  0  0  0
 19 20  2  0  0  0  0
 19 36  1  0  0  0  0
 20 37  1  0  0  0  0
M  END
