
 OpenBabel10072616433D

 82 84  0  0  1  0  0  0  0  0999 V2000
    2.3353   -2.3576   -2.7513 C   0  0  0  0  0  0  0  0  0  0  0  0
    3.6373   -2.3810   -3.5540 C   0  0  0  0  0  0  0  0  0  0  0  0
    3.3639   -2.9499   -4.9497 C   0  0  0  0  0  0  0  0  0  0  0  0
    4.2587   -0.9841   -3.7064 C   0  0  0  0  0  0  0  0  0  0  0  0
    4.5914   -0.2794   -2.4276 N   0  0  0  0  0  0  0  0  0  0  0  0
    5.3543   -1.0963   -1.3839 C   0  0  1  0  0  0  0  0  0  0  0  0
    6.8614   -1.2870   -1.6554 C   0  0  0  0  0  0  0  0  0  0  0  0
    7.2102   -2.3315   -2.7231 C   0  0  0  0  0  0  0  0  0  0  0  0
    8.7180   -2.4704   -2.9685 C   0  0  0  0  0  0  0  0  0  0  0  0
    9.4911   -3.0621   -1.7940 C   0  0  0  0  0  0  0  0  0  0  0  0
   10.9085   -3.1263   -2.0989 N   0  0  0  0  0  0  0  0  0  0  0  0
   11.8409   -3.0955   -1.0917 C   0  0  0  0  0  0  0  0  0  0  0  0
   11.5144   -3.0440    0.0881 O   0  0  0  0  0  0  0  0  0  0  0  0
   13.1602   -3.0964   -1.5134 N   0  0  0  0  0  0  0  0  0  0  0  0
   13.5852   -2.9526   -2.9070 C   0  0  0  0  0  0  0  0  0  0  0  0
   13.8686   -4.2551   -3.6272 C   0  0  0  0  0  0  0  0  0  0  0  0
   13.4937   -5.5102   -3.1256 C   0  0  0  0  0  0  0  0  0  0  0  0
   13.7475   -6.6740   -3.8555 C   0  0  0  0  0  0  0  0  0  0  0  0
   14.3752   -6.6004   -5.0964 C   0  0  0  0  0  0  0  0  0  0  0  0
   14.7541   -5.3629   -5.6085 C   0  0  0  0  0  0  0  0  0  0  0  0
   14.5003   -4.1988   -4.8813 C   0  0  0  0  0  0  0  0  0  0  0  0
   14.2089   -3.0752   -0.4941 C   0  0  0  0  0  0  0  0  0  0  0  0
   14.8109   -1.6969   -0.3136 C   0  0  0  0  0  0  0  0  0  0  0  0
   14.0329   -0.6412    0.1903 C   0  0  0  0  0  0  0  0  0  0  0  0
   14.5759    0.6372    0.3250 C   0  0  0  0  0  0  0  0  0  0  0  0
   15.8974    0.8593   -0.0384 C   0  0  0  0  0  0  0  0  0  0  0  0
   16.6881   -0.1708   -0.5326 C   0  0  0  0  0  0  0  0  0  0  0  0
   16.1467   -1.4502   -0.6693 C   0  0  0  0  0  0  0  0  0  0  0  0
   16.4187    2.0875    0.0856 F   0  0  0  0  0  0  0  0  0  0  0  0
    5.1786   -0.5093    0.0418 C   0  0  0  0  0  0  0  0  0  0  0  0
    3.8202   -0.1776    0.3086 O   0  0  0  0  0  0  0  0  0  0  0  0
    5.0903    1.3547   -2.6512 S   0  0  0  0  0  0  0  0  0  0  0  0
    5.0403    2.0228   -1.3706 O   0  0  0  0  0  0  0  0  0  0  0  0
    6.2982    1.3349   -3.4502 O   0  0  0  0  0  0  0  0  0  0  0  0
    3.7923    2.0752   -3.6353 C   0  0  0  0  0  0  0  0  0  0  0  0
    2.4885    2.1031   -3.1358 C   0  0  0  0  0  0  0  0  0  0  0  0
    1.4625    2.6346   -3.9221 C   0  0  0  0  0  0  0  0  0  0  0  0
    1.7354    3.1902   -5.1767 C   0  0  0  0  0  0  0  0  0  0  0  0
    3.0396    3.1165   -5.6777 C   0  0  0  0  0  0  0  0  0  0  0  0
    4.0739    2.5763   -4.9080 C   0  0  0  0  0  0  0  0  0  0  0  0
    0.6852    3.5937   -6.0096 N   0  0  0  0  0  0  0  0  0  0  0  0
    1.9267   -3.3704   -2.6616 H   0  0  0  0  0  0  0  0  0  0  0  0
    1.5804   -1.7314   -3.2388 H   0  0  0  0  0  0  0  0  0  0  0  0
    2.4890   -1.9748   -1.7380 H   0  0  0  0  0  0  0  0  0  0  0  0
    4.3409   -3.0625   -3.0654 H   0  0  0  0  0  0  0  0  0  0  0  0
    2.6328   -2.3368   -5.4879 H   0  0  0  0  0  0  0  0  0  0  0  0
    2.9725   -3.9696   -4.8862 H   0  0  0  0  0  0  0  0  0  0  0  0
    4.2829   -2.9796   -5.5446 H   0  0  0  0  0  0  0  0  0  0  0  0
    3.5230   -0.3828   -4.2508 H   0  0  0  0  0  0  0  0  0  0  0  0
    5.1452   -1.0268   -4.3446 H   0  0  0  0  0  0  0  0  0  0  0  0
    4.8870   -2.0843   -1.3258 H   0  0  0  0  0  0  0  0  0  0  0  0
    7.3182   -1.6266   -0.7169 H   0  0  0  0  0  0  0  0  0  0  0  0
    7.3435   -0.3342   -1.8931 H   0  0  0  0  0  0  0  0  0  0  0  0
    6.7704   -2.0537   -3.6814 H   0  0  0  0  0  0  0  0  0  0  0  0
    6.7886   -3.3048   -2.4445 H   0  0  0  0  0  0  0  0  0  0  0  0
    9.1350   -1.4887   -3.2287 H   0  0  0  0  0  0  0  0  0  0  0  0
    8.8677   -3.1105   -3.8483 H   0  0  0  0  0  0  0  0  0  0  0  0
    9.1534   -4.0827   -1.5812 H   0  0  0  0  0  0  0  0  0  0  0  0
    9.3496   -2.4604   -0.8913 H   0  0  0  0  0  0  0  0  0  0  0  0
   11.1658   -3.6869   -2.8979 H   0  0  0  0  0  0  0  0  0  0  0  0
   14.4860   -2.3295   -2.9336 H   0  0  0  0  0  0  0  0  0  0  0  0
   12.8182   -2.4062   -3.4677 H   0  0  0  0  0  0  0  0  0  0  0  0
   12.9998   -5.6022   -2.1609 H   0  0  0  0  0  0  0  0  0  0  0  0
   13.4512   -7.6398   -3.4543 H   0  0  0  0  0  0  0  0  0  0  0  0
   14.5662   -7.5065   -5.6652 H   0  0  0  0  0  0  0  0  0  0  0  0
   15.2431   -5.3027   -6.5770 H   0  0  0  0  0  0  0  0  0  0  0  0
   14.7975   -3.2403   -5.3036 H   0  0  0  0  0  0  0  0  0  0  0  0
   14.9771   -3.8003   -0.7885 H   0  0  0  0  0  0  0  0  0  0  0  0
   13.8236   -3.4170    0.4739 H   0  0  0  0  0  0  0  0  0  0  0  0
   12.9958   -0.8127    0.4748 H   0  0  0  0  0  0  0  0  0  0  0  0
   13.9747    1.4560    0.7065 H   0  0  0  0  0  0  0  0  0  0  0  0
   17.7176    0.0288   -0.8110 H   0  0  0  0  0  0  0  0  0  0  0  0
   16.7696   -2.2501   -1.0628 H   0  0  0  0  0  0  0  0  0  0  0  0
    5.8066    0.3718    0.2095 H   0  0  0  0  0  0  0  0  0  0  0  0
    5.4851   -1.2551    0.7852 H   0  0  0  0  0  0  0  0  0  0  0  0
    3.6626    0.6383   -0.2026 H   0  0  0  0  0  0  0  0  0  0  0  0
    2.2604    1.6915   -2.1559 H   0  0  0  0  0  0  0  0  0  0  0  0
    0.4417    2.6050   -3.5486 H   0  0  0  0  0  0  0  0  0  0  0  0
    3.2573    3.4799   -6.6794 H   0  0  0  0  0  0  0  0  0  0  0  0
    5.0802    2.5346   -5.3183 H   0  0  0  0  0  0  0  0  0  0  0  0
   -0.1331    3.9272   -5.5085 H   0  0  0  0  0  0  0  0  0  0  0  0
    0.9678    4.2379   -6.7419 H   0  0  0  0  0  0  0  0  0  0  0  0
  1  2  1  0  0  0  0
  1 42  1  0  0  0  0
  1 43  1  0  0  0  0
  1 44  1  0  0  0  0
  2  3  1  0  0  0  0
  2  4  1  0  0  0  0
  2 45  1  0  0  0  0
  3 46  1  0  0  0  0
  3 47  1  0  0  0  0
  3 48  1  0  0  0  0
  4  5  1  0  0  0  0
  4 49  1  0  0  0  0
  4 50  1  0  0  0  0
  5  6  1  0  0  0  0
  5 32  1  0  0  0  0
  6  7  1  0  0  0  0
  6 30  1  0  0  0  0
  6 51  1  1  0  0  0
  7  8  1  0  0  0  0
  7 52  1  0  0  0  0
  7 53  1  0  0  0  0
  8  9  1  0  0  0  0
  8 54  1  0  0  0  0
  8 55  1  0  0  0  0
  9 10  1  0  0  0  0
  9 56  1  0  0  0  0
  9 57  1  0  0  0  0
 10 11  1  0  0  0  0
 10 58  1  0  0  0  0
 10 59  1  0  0  0  0
 11 12  1  0  0  0  0
 11 60  1  0  0  0  0
 12 13  2  0  0  0  0
 12 14  1  0  0  0  0
 14 15  1  0  0  0  0
 14 22  1  0  0  0  0
 15 16  1  0  0  0  0
 15 61  1  0  0  0  0
 15 62  1  0  0  0  0
 16 17  2  0  0  0  0
 16 21  1  0  0  0  0
 17 18  1  0  0  0  0
 17 63  1  0  0  0  0
 18 19  2  0  0  0  0
 18 64  1  0  0  0  0
 19 20  1  0  0  0  0
 19 65  1  0  0  0  0
 20 21  2  0  0  0  0
 20 66  1  0  0  0  0
 21 67  1  0  0  0  0
 22 23  1  0  0  0  0
 22 68  1  0  0  0  0
 22 69  1  0  0  0  0
 23 24  2  0  0  0  0
 23 28  1  0  0  0  0
 24 25  1  0  0  0  0
 24 70  1  0  0  0  0
 25 26  2  0  0  0  0
 25 71  1  0  0  0  0
 26 27  1  0  0  0  0
 26 29  1  0  0  0  0
 27 28  2  0  0  0  0
 27 72  1  0  0  0  0
 28 73  1  0  0  0  0
 30 31  1  0  0  0  0
 30 74  1  0  0  0  0
 30 75  1  0  0  0  0
 31 76  1  0  0  0  0
 32 33  2  0  0  0  0
 32 34  2  0  0  0  0
 32 35  1  0  0  0  0
 35 36  2  0  0  0  0
 35 40  1  0  0  0  0
 36 37  1  0  0  0  0
 36 77  1  0  0  0  0
 37 38  2  0  0  0  0
 37 78  1  0  0  0  0
 38 39  1  0  0  0  0
 38 41  1  0  0  0  0
 39 40  2  0  0  0  0
 39 79  1  0  0  0  0
 40 80  1  0  0  0  0
 41 81  1  0  0  0  0
 41 82  1  0  0  0  0
M  END
