
 OpenBabel10072619533D

 29 29  0  0  0  0  0  0  0  0999 V2000
    2.5029   -1.4348   -0.1669 C   0  0  0  0  0  0  0  0  0  0  0  0
    1.2159   -0.6573   -0.0530 C   0  0  0  0  0  0  0  0  0  0  0  0
    0.0148   -1.3761   -0.0581 C   0  0  0  0  0  0  0  0  0  0  0  0
   -1.2273   -0.7407    0.0559 C   0  0  0  0  0  0  0  0  0  0  0  0
   -1.2850    0.6664    0.1821 C   0  0  0  0  0  0  0  0  0  0  0  0
   -0.0725    1.4141    0.1205 C   0  0  0  0  0  0  0  0  0  0  0  0
    1.1887    0.7507    0.0725 C   0  0  0  0  0  0  0  0  0  0  0  0
    2.4996    1.4987    0.1394 C   0  0  0  0  0  0  0  0  0  0  0  0
   -0.1379    3.2158    0.0169 S   0  0  0  0  0  0  0  0  0  0  0  0
    1.0691    3.7415   -0.5778 O   0  0  0  0  0  0  0  0  0  0  0  0
   -1.4280    3.6584   -0.4590 O   0  0  0  0  0  0  0  0  0  0  0  0
   -0.0758    3.6555    1.6387 N   0  0  0  0  0  0  0  0  0  0  0  0
   -2.6325    1.3240    0.3666 C   0  0  0  0  0  0  0  0  0  0  0  0
   -2.4631   -1.6047    0.0560 C   0  0  0  0  0  0  0  0  0  0  0  0
    2.3198   -2.4795   -0.4410 H   0  0  0  0  0  0  0  0  0  0  0  0
    3.0339   -1.4298    0.7901 H   0  0  0  0  0  0  0  0  0  0  0  0
    3.1412   -1.0107   -0.9488 H   0  0  0  0  0  0  0  0  0  0  0  0
    0.0479   -2.4618   -0.1469 H   0  0  0  0  0  0  0  0  0  0  0  0
    2.4533    2.3150    0.8661 H   0  0  0  0  0  0  0  0  0  0  0  0
    2.7746    1.8756   -0.8500 H   0  0  0  0  0  0  0  0  0  0  0  0
    3.3191    0.8679    0.4964 H   0  0  0  0  0  0  0  0  0  0  0  0
    0.7699    4.1992    1.8119 H   0  0  0  0  0  0  0  0  0  0  0  0
   -0.9359    4.1410    1.8933 H   0  0  0  0  0  0  0  0  0  0  0  0
   -3.3745    0.6391    0.7875 H   0  0  0  0  0  0  0  0  0  0  0  0
   -3.0165    1.6831   -0.5926 H   0  0  0  0  0  0  0  0  0  0  0  0
   -2.5784    2.1403    1.0928 H   0  0  0  0  0  0  0  0  0  0  0  0
   -2.2349   -2.6344   -0.2401 H   0  0  0  0  0  0  0  0  0  0  0  0
   -3.1983   -1.2261   -0.6615 H   0  0  0  0  0  0  0  0  0  0  0  0
   -2.9028   -1.6356    1.0578 H   0  0  0  0  0  0  0  0  0  0  0  0
  1  2  1  0  0  0  0
  1 15  1  0  0  0  0
  1 16  1  0  0  0  0
  1 17  1  0  0  0  0
  2  3  2  0  0  0  0
  2  7  1  0  0  0  0
  3  4  1  0  0  0  0
  3 18  1  0  0  0  0
  4  5  2  0  0  0  0
  4 14  1  0  0  0  0
  5  6  1  0  0  0  0
  5 13  1  0  0  0  0
  6  7  2  0  0  0  0
  6  9  1  0  0  0  0
  7  8  1  0  0  0  0
  8 19  1  0  0  0  0
  8 20  1  0  0  0  0
  8 21  1  0  0  0  0
  9 10  2  0  0  0  0
  9 11  2  0  0  0  0
  9 12  1  0  0  0  0
 12 22  1  0  0  0  0
 12 23  1  0  0  0  0
 13 24  1  0  0  0  0
 13 25  1  0  0  0  0
 13 26  1  0  0  0  0
 14 27  1  0  0  0  0
 14 28  1  0  0  0  0
 14 29  1  0  0  0  0
M  END
