
 OpenBabel10072620233D

 39 42  0  0  0  0  0  0  0  0999 V2000
    0.9651   -0.2351    0.5417 C   0  0  0  0  0  0  0  0  0  0  0  0
    2.4570   -0.0687    0.3941 C   0  0  0  0  0  0  0  0  0  0  0  0
    3.2618   -1.1513    0.5270 C   0  0  0  0  0  0  0  0  0  0  0  0
    4.7078   -1.0795    0.4000 C   0  0  0  0  0  0  0  0  0  0  0  0
    5.2782    0.1067    0.1439 C   0  0  0  0  0  0  0  0  0  0  0  0
    4.4717    1.2316    0.0024 N   0  0  0  0  0  0  0  0  0  0  0  0
    3.0872    1.1970    0.1133 C   0  0  0  0  0  0  0  0  0  0  0  0
    2.6159    2.4801   -0.0922 C   0  0  0  0  0  0  0  0  0  0  0  0
    3.7348    3.3183   -0.3375 C   0  0  0  0  0  0  0  0  0  0  0  0
    4.8601    2.5243   -0.2662 C   0  0  0  0  0  0  0  0  0  0  0  0
    3.6936    4.7164   -0.6236 C   0  0  0  0  0  0  0  0  0  0  0  0
    4.7552    5.4878   -0.9098 C   0  0  0  0  0  0  0  0  0  0  0  0
    4.6193    6.9114   -1.2472 C   0  0  0  0  0  0  0  0  0  0  0  0
    4.6319    7.8312   -0.1895 C   0  0  0  0  0  0  0  0  0  0  0  0
    4.5381    9.1959   -0.4426 C   0  0  0  0  0  0  0  0  0  0  0  0
    4.4224    9.6518   -1.7542 C   0  0  0  0  0  0  0  0  0  0  0  0
    4.3925    8.7528   -2.8319 C   0  0  0  0  0  0  0  0  0  0  0  0
    4.2635    9.2258   -4.1490 C   0  0  0  0  0  0  0  0  0  0  0  0
    4.2290    8.3447   -5.2297 C   0  0  0  0  0  0  0  0  0  0  0  0
    4.3234    6.9768   -5.0083 C   0  0  0  0  0  0  0  0  0  0  0  0
    4.4553    6.4909   -3.7060 C   0  0  0  0  0  0  0  0  0  0  0  0
    4.4914    7.3597   -2.5896 C   0  0  0  0  0  0  0  0  0  0  0  0
    0.6817   -1.2674    0.7733 H   0  0  0  0  0  0  0  0  0  0  0  0
    0.4600    0.0491   -0.3872 H   0  0  0  0  0  0  0  0  0  0  0  0
    0.5914    0.4013    1.3505 H   0  0  0  0  0  0  0  0  0  0  0  0
    2.8478   -2.1341    0.7370 H   0  0  0  0  0  0  0  0  0  0  0  0
    5.2925   -1.9854    0.5141 H   0  0  0  0  0  0  0  0  0  0  0  0
    6.3464    0.2403    0.0357 H   0  0  0  0  0  0  0  0  0  0  0  0
    1.5746    2.7747   -0.0756 H   0  0  0  0  0  0  0  0  0  0  0  0
    5.9084    2.7560   -0.3899 H   0  0  0  0  0  0  0  0  0  0  0  0
    2.7073    5.1790   -0.6293 H   0  0  0  0  0  0  0  0  0  0  0  0
    5.7682    5.1005   -0.9355 H   0  0  0  0  0  0  0  0  0  0  0  0
    4.7180    7.4862    0.8385 H   0  0  0  0  0  0  0  0  0  0  0  0
    4.5559    9.9057    0.3799 H   0  0  0  0  0  0  0  0  0  0  0  0
    4.3513   10.7230   -1.9316 H   0  0  0  0  0  0  0  0  0  0  0  0
    4.1851   10.2934   -4.3442 H   0  0  0  0  0  0  0  0  0  0  0  0
    4.1280    8.7293   -6.2411 H   0  0  0  0  0  0  0  0  0  0  0  0
    4.2936    6.2824   -5.8440 H   0  0  0  0  0  0  0  0  0  0  0  0
    4.5255    5.4134   -3.5686 H   0  0  0  0  0  0  0  0  0  0  0  0
  1  2  1  0  0  0  0
  1 23  1  0  0  0  0
  1 24  1  0  0  0  0
  1 25  1  0  0  0  0
  2  3  2  0  0  0  0
  2  7  1  0  0  0  0
  3  4  1  0  0  0  0
  3 26  1  0  0  0  0
  4  5  2  0  0  0  0
  4 27  1  0  0  0  0
  5  6  1  0  0  0  0
  5 28  1  0  0  0  0
  6  7  1  0  0  0  0
  6 10  1  0  0  0  0
  7  8  2  0  0  0  0
  8  9  1  0  0  0  0
  8 29  1  0  0  0  0
  9 10  2  0  0  0  0
  9 11  1  0  0  0  0
 10 30  1  0  0  0  0
 11 12  2  0  0  0  0
 11 31  1  0  0  0  0
 12 13  1  0  0  0  0
 12 32  1  0  0  0  0
 13 14  2  0  0  0  0
 13 22  1  0  0  0  0
 14 15  1  0  0  0  0
 14 33  1  0  0  0  0
 15 16  2  0  0  0  0
 15 34  1  0  0  0  0
 16 17  1  0  0  0  0
 16 35  1  0  0  0  0
 17 18  2  0  0  0  0
 17 22  1  0  0  0  0
 18 19  1  0  0  0  0
 18 36  1  0  0  0  0
 19 20  2  0  0  0  0
 19 37  1  0  0  0  0
 20 21  1  0  0  0  0
 20 38  1  0  0  0  0
 21 22  2  0  0  0  0
 21 39  1  0  0  0  0
M  END
