
 OpenBabel10072616343D

 49 50  0  0  0  0  0  0  0  0999 V2000
   11.7996   -2.2506   -1.0180 C   0  0  0  0  0  0  0  0  0  0  0  0
   11.1157   -1.1293   -1.7830 C   0  0  0  0  0  0  0  0  0  0  0  0
    9.7247   -1.3995   -1.8759 O   0  0  0  0  0  0  0  0  0  0  0  0
    8.7958   -0.3273   -1.9391 C   0  0  0  0  0  0  0  0  0  0  0  0
    7.5761   -0.4918   -1.4407 C   0  0  0  0  0  0  0  0  0  0  0  0
    6.7094    0.5704   -1.3476 C   0  0  0  0  0  0  0  0  0  0  0  0
    7.0455    1.7980   -1.8472 C   0  0  0  0  0  0  0  0  0  0  0  0
    8.2898    1.9412   -2.2658 C   0  0  0  0  0  0  0  0  0  0  0  0
    9.1794    0.8705   -2.5194 C   0  0  0  0  0  0  0  0  0  0  0  0
    8.7851    3.3080   -2.4833 N   0  0  0  0  0  0  0  0  0  0  0  0
    8.1083    4.4455   -1.8439 C   0  0  0  0  0  0  0  0  0  0  0  0
    7.0950    4.2473   -1.1029 O   0  0  0  0  0  0  0  0  0  0  0  0
    8.6205    5.8589   -2.0688 C   0  0  0  0  0  0  0  0  0  0  0  0
    7.8043    6.9227   -1.8393 C   0  0  0  0  0  0  0  0  0  0  0  0
    6.3801    6.6981   -1.3579 C   0  0  0  0  0  0  0  0  0  0  0  0
    5.4067    6.5593   -2.2502 C   0  0  0  0  0  0  0  0  0  0  0  0
    4.1411    6.1992   -1.8544 C   0  0  0  0  0  0  0  0  0  0  0  0
    3.8303    6.0644   -0.5298 C   0  0  0  0  0  0  0  0  0  0  0  0
    4.8383    6.1366    0.3204 C   0  0  0  0  0  0  0  0  0  0  0  0
    6.1224    6.6384    0.0018 C   0  0  0  0  0  0  0  0  0  0  0  0
    7.4188    7.1981    1.3611 Br  0  0  0  0  0  0  0  0  0  0  0  0
    2.4955    5.8580   -0.0917 O   0  0  0  0  0  0  0  0  0  0  0  0
    2.0839    6.3354    1.1807 C   0  0  0  0  0  0  0  0  0  0  0  0
    0.6213    5.9870    1.4038 C   0  0  0  0  0  0  0  0  0  0  0  0
    0.0459    6.3231    2.4860 O   0  0  0  0  0  0  0  0  0  0  0  0
   -0.1022    5.2861    0.4030 O   0  0  0  0  0  0  0  0  0  0  0  0
    3.1417    5.9635   -2.8352 O   0  0  0  0  0  0  0  0  0  0  0  0
    3.5064    5.4736   -4.1171 C   0  0  0  0  0  0  0  0  0  0  0  0
   10.0446    6.0835   -2.5503 C   0  0  0  0  0  0  0  0  0  0  0  0
   11.2260    6.2699   -2.9497 N   0  0  0  0  0  0  0  0  0  0  0  0
   12.8478   -2.0470   -0.9481 H   0  0  0  0  0  0  0  0  0  0  0  0
   11.6498   -3.1766   -1.5327 H   0  0  0  0  0  0  0  0  0  0  0  0
   11.3829   -2.3175   -0.0348 H   0  0  0  0  0  0  0  0  0  0  0  0
   11.5324   -1.0624   -2.7663 H   0  0  0  0  0  0  0  0  0  0  0  0
   11.2656   -0.2032   -1.2684 H   0  0  0  0  0  0  0  0  0  0  0  0
    7.2763   -1.4259   -1.1204 H   0  0  0  0  0  0  0  0  0  0  0  0
    5.7917    0.4397   -0.8941 H   0  0  0  0  0  0  0  0  0  0  0  0
    6.3635    2.5710   -1.8945 H   0  0  0  0  0  0  0  0  0  0  0  0
   10.0363    0.9727   -3.0854 H   0  0  0  0  0  0  0  0  0  0  0  0
    9.5701    3.4616   -3.0573 H   0  0  0  0  0  0  0  0  0  0  0  0
    8.1520    7.8823   -1.9921 H   0  0  0  0  0  0  0  0  0  0  0  0
    5.6024    6.7234   -3.2501 H   0  0  0  0  0  0  0  0  0  0  0  0
    4.6784    5.8039    1.2841 H   0  0  0  0  0  0  0  0  0  0  0  0
    2.2076    7.3975    1.2203 H   0  0  0  0  0  0  0  0  0  0  0  0
    2.6797    5.8783    1.9430 H   0  0  0  0  0  0  0  0  0  0  0  0
    0.3219    5.0383   -0.3949 H   0  0  0  0  0  0  0  0  0  0  0  0
    2.6285    5.3582   -4.7179 H   0  0  0  0  0  0  0  0  0  0  0  0
    3.9935    4.5267   -4.0118 H   0  0  0  0  0  0  0  0  0  0  0  0
    4.1720    6.1667   -4.5877 H   0  0  0  0  0  0  0  0  0  0  0  0
  1  2  1  0  0  0  0
  1 31  1  0  0  0  0
  1 32  1  0  0  0  0
  1 33  1  0  0  0  0
  2  3  1  0  0  0  0
  2 34  1  0  0  0  0
  2 35  1  0  0  0  0
  3  4  1  0  0  0  0
  4  5  2  0  0  0  0
  4  9  1  0  0  0  0
  5  6  1  0  0  0  0
  5 36  1  0  0  0  0
  6  7  2  0  0  0  0
  6 37  1  0  0  0  0
  7  8  1  0  0  0  0
  7 38  1  0  0  0  0
  8  9  2  0  0  0  0
  8 10  1  0  0  0  0
  9 39  1  0  0  0  0
 10 11  1  0  0  0  0
 10 40  1  0  0  0  0
 11 12  2  0  0  0  0
 11 13  1  0  0  0  0
 13 14  2  0  0  0  0
 13 29  1  0  0  0  0
 14 15  1  0  0  0  0
 14 41  1  0  0  0  0
 15 16  2  0  0  0  0
 15 20  1  0  0  0  0
 16 17  1  0  0  0  0
 16 42  1  0  0  0  0
 17 18  2  0  0  0  0
 17 27  1  0  0  0  0
 18 19  1  0  0  0  0
 18 22  1  0  0  0  0
 19 20  2  0  0  0  0
 19 43  1  0  0  0  0
 20 21  1  0  0  0  0
 22 23  1  0  0  0  0
 23 24  1  0  0  0  0
 23 44  1  0  0  0  0
 23 45  1  0  0  0  0
 24 25  2  0  0  0  0
 24 26  1  0  0  0  0
 26 46  1  0  0  0  0
 27 28  1  0  0  0  0
 28 47  1  0  0  0  0
 28 48  1  0  0  0  0
 28 49  1  0  0  0  0
 29 30  3  0  0  0  0
M  END
