
 OpenBabel10072620203D

 64 67  0  0  0  0  0  0  0  0999 V2000
   -6.4572  -10.5830   -4.4092 C   0  0  0  0  0  0  0  0  0  0  0  0
   -5.6334   -9.6473   -3.5790 C   0  0  0  0  0  0  0  0  0  0  0  0
   -4.2769   -9.8912   -3.3549 C   0  0  0  0  0  0  0  0  0  0  0  0
   -3.4904   -9.0027   -2.6017 C   0  0  0  0  0  0  0  0  0  0  0  0
   -4.0792   -7.8455   -2.0352 C   0  0  0  0  0  0  0  0  0  0  0  0
   -5.4454   -7.6140   -2.2737 C   0  0  0  0  0  0  0  0  0  0  0  0
   -6.2116   -8.5010   -3.0336 C   0  0  0  0  0  0  0  0  0  0  0  0
   -3.2138   -6.8885   -1.2353 C   0  0  0  0  0  0  0  0  0  0  0  0
   -3.9447   -5.9401   -0.3934 N   0  0  0  0  0  0  0  0  0  0  0  0
   -4.2800   -6.2182    0.9130 C   0  0  0  0  0  0  0  0  0  0  0  0
   -4.9071   -5.1196    1.4393 C   0  0  0  0  0  0  0  0  0  0  0  0
   -4.9739   -4.1496    0.4146 C   0  0  0  0  0  0  0  0  0  0  0  0
   -4.3482   -4.6548   -0.7164 C   0  0  0  0  0  0  0  0  0  0  0  0
   -4.1938   -4.0568   -2.0815 C   0  0  0  0  0  0  0  0  0  0  0  0
   -3.6291   -2.6940   -2.0671 N   0  0  0  0  0  0  0  0  0  0  0  0
   -2.2491   -2.5884   -1.5372 C   0  0  0  0  0  0  0  0  0  0  0  0
   -2.0296   -1.5772   -0.3968 C   0  0  0  0  0  0  0  0  0  0  0  0
   -2.3033   -2.0726    1.0066 C   0  0  0  0  0  0  0  0  0  0  0  0
   -1.7262   -3.2580    1.4834 C   0  0  0  0  0  0  0  0  0  0  0  0
   -1.9498   -3.6876    2.7949 C   0  0  0  0  0  0  0  0  0  0  0  0
   -2.7404   -2.9190    3.6442 C   0  0  0  0  0  0  0  0  0  0  0  0
   -3.2886   -1.7202    3.2049 C   0  0  0  0  0  0  0  0  0  0  0  0
   -3.0659   -1.2978    1.8917 C   0  0  0  0  0  0  0  0  0  0  0  0
   -3.0152   -3.4394    5.2589 Cl  0  0  0  0  0  0  0  0  0  0  0  0
   -3.8245   -1.9571   -3.2410 C   0  0  0  0  0  0  0  0  0  0  0  0
   -3.5576   -2.5475   -4.7969 S   0  0  0  0  0  0  0  0  0  0  0  0
   -4.0969   -0.6220   -3.1374 N   0  0  0  0  0  0  0  0  0  0  0  0
   -4.7803    0.1155   -2.1526 C   0  0  0  0  0  0  0  0  0  0  0  0
   -5.4390   -0.4608   -1.0667 C   0  0  0  0  0  0  0  0  0  0  0  0
   -6.1346    0.3443   -0.1600 C   0  0  0  0  0  0  0  0  0  0  0  0
   -6.1927    1.7212   -0.3511 C   0  0  0  0  0  0  0  0  0  0  0  0
   -5.5542    2.3081   -1.4377 C   0  0  0  0  0  0  0  0  0  0  0  0
   -4.8503    1.5046   -2.3388 C   0  0  0  0  0  0  0  0  0  0  0  0
   -6.8713    2.5067    0.4996 F   0  0  0  0  0  0  0  0  0  0  0  0
   -6.9307   -0.3851    1.1819 Cl  0  0  0  0  0  0  0  0  0  0  0  0
   -2.0376   -9.3381   -2.3876 C   0  0  0  0  0  0  0  0  0  0  0  0
   -5.8838  -11.4740   -4.6850 H   0  0  0  0  0  0  0  0  0  0  0  0
   -6.7768  -10.0835   -5.3291 H   0  0  0  0  0  0  0  0  0  0  0  0
   -7.3397  -10.9119   -3.8518 H   0  0  0  0  0  0  0  0  0  0  0  0
   -3.8249  -10.7893   -3.7738 H   0  0  0  0  0  0  0  0  0  0  0  0
   -5.9541   -6.7425   -1.8650 H   0  0  0  0  0  0  0  0  0  0  0  0
   -7.2665   -8.2897   -3.1920 H   0  0  0  0  0  0  0  0  0  0  0  0
   -2.5472   -6.3244   -1.8957 H   0  0  0  0  0  0  0  0  0  0  0  0
   -2.5811   -7.4567   -0.5421 H   0  0  0  0  0  0  0  0  0  0  0  0
   -4.0360   -7.1748    1.3594 H   0  0  0  0  0  0  0  0  0  0  0  0
   -5.2811   -5.0201    2.4513 H   0  0  0  0  0  0  0  0  0  0  0  0
   -5.4257   -3.1753    0.5119 H   0  0  0  0  0  0  0  0  0  0  0  0
   -5.1876   -4.0157   -2.5475 H   0  0  0  0  0  0  0  0  0  0  0  0
   -3.5671   -4.6733   -2.7322 H   0  0  0  0  0  0  0  0  0  0  0  0
   -1.6044   -2.2609   -2.3642 H   0  0  0  0  0  0  0  0  0  0  0  0
   -1.8832   -3.5859   -1.2731 H   0  0  0  0  0  0  0  0  0  0  0  0
   -2.5834   -0.6532   -0.5916 H   0  0  0  0  0  0  0  0  0  0  0  0
   -0.9692   -1.2866   -0.4097 H   0  0  0  0  0  0  0  0  0  0  0  0
   -1.1030   -3.8708    0.8397 H   0  0  0  0  0  0  0  0  0  0  0  0
   -1.5251   -4.6280    3.1305 H   0  0  0  0  0  0  0  0  0  0  0  0
   -3.8865   -1.1068    3.8741 H   0  0  0  0  0  0  0  0  0  0  0  0
   -3.4992   -0.3571    1.5677 H   0  0  0  0  0  0  0  0  0  0  0  0
   -3.9383   -0.1303   -4.0102 H   0  0  0  0  0  0  0  0  0  0  0  0
   -5.4409   -1.5332   -0.9252 H   0  0  0  0  0  0  0  0  0  0  0  0
   -5.6098    3.3821   -1.5805 H   0  0  0  0  0  0  0  0  0  0  0  0
   -4.3570    1.9786   -3.1859 H   0  0  0  0  0  0  0  0  0  0  0  0
   -1.7170  -10.1754   -3.0166 H   0  0  0  0  0  0  0  0  0  0  0  0
   -1.8692   -9.6241   -1.3446 H   0  0  0  0  0  0  0  0  0  0  0  0
   -1.4048   -8.4825   -2.6430 H   0  0  0  0  0  0  0  0  0  0  0  0
  1  2  1  0  0  0  0
  1 37  1  0  0  0  0
  1 38  1  0  0  0  0
  1 39  1  0  0  0  0
  2  3  2  0  0  0  0
  2  7  1  0  0  0  0
  3  4  1  0  0  0  0
  3 40  1  0  0  0  0
  4  5  2  0  0  0  0
  4 36  1  0  0  0  0
  5  6  1  0  0  0  0
  5  8  1  0  0  0  0
  6  7  2  0  0  0  0
  6 41  1  0  0  0  0
  7 42  1  0  0  0  0
  8  9  1  0  0  0  0
  8 43  1  0  0  0  0
  8 44  1  0  0  0  0
  9 10  1  0  0  0  0
  9 13  1  0  0  0  0
 10 11  2  0  0  0  0
 10 45  1  0  0  0  0
 11 12  1  0  0  0  0
 11 46  1  0  0  0  0
 12 13  2  0  0  0  0
 12 47  1  0  0  0  0
 13 14  1  0  0  0  0
 14 15  1  0  0  0  0
 14 48  1  0  0  0  0
 14 49  1  0  0  0  0
 15 16  1  0  0  0  0
 15 25  1  0  0  0  0
 16 17  1  0  0  0  0
 16 50  1  0  0  0  0
 16 51  1  0  0  0  0
 17 18  1  0  0  0  0
 17 52  1  0  0  0  0
 17 53  1  0  0  0  0
 18 19  2  0  0  0  0
 18 23  1  0  0  0  0
 19 20  1  0  0  0  0
 19 54  1  0  0  0  0
 20 21  2  0  0  0  0
 20 55  1  0  0  0  0
 21 22  1  0  0  0  0
 21 24  1  0  0  0  0
 22 23  2  0  0  0  0
 22 56  1  0  0  0  0
 23 57  1  0  0  0  0
 25 26  2  0  0  0  0
 25 27  1  0  0  0  0
 27 28  1  0  0  0  0
 27 58  1  0  0  0  0
 28 29  2  0  0  0  0
 28 33  1  0  0  0  0
 29 30  1  0  0  0  0
 29 59  1  0  0  0  0
 30 31  2  0  0  0  0
 30 35  1  0  0  0  0
 31 32  1  0  0  0  0
 31 34  1  0  0  0  0
 32 33  2  0  0  0  0
 32 60  1  0  0  0  0
 33 61  1  0  0  0  0
 36 62  1  0  0  0  0
 36 63  1  0  0  0  0
 36 64  1  0  0  0  0
M  END
