
 OpenBabel10072620063D

 75 74  0  0  0  0  0  0  0  0999 V2000
    1.4703    2.7024    2.8083 C   0  0  0  0  0  0  0  0  0  0  0  0
    2.3253    1.7918    2.3238 C   0  0  0  0  0  0  0  0  0  0  0  0
    3.1518    2.0883    1.1347 C   0  0  0  0  0  0  0  0  0  0  0  0
    3.1815    3.1582    0.5535 O   0  0  0  0  0  0  0  0  0  0  0  0
    3.8832    0.9825    0.8318 O   0  0  0  0  0  0  0  0  0  0  0  0
    4.7515    1.0931   -0.3154 C   0  0  0  0  0  0  0  0  0  0  0  0
    6.2415    1.0134    0.0911 C   0  0  0  0  0  0  0  0  0  0  0  0
    7.1276    1.3004   -1.1561 C   0  0  0  0  0  0  0  0  0  0  0  0
    6.7234    2.4409   -1.9306 O   0  0  0  0  0  0  0  0  0  0  0  0
    7.3431    3.6699   -1.5528 C   0  0  0  0  0  0  0  0  0  0  0  0
    6.9302    4.8339   -2.4907 C   0  0  0  0  0  0  0  0  0  0  0  0
    5.3822    4.8852   -2.6050 C   0  0  0  0  0  0  0  0  0  0  0  0
    4.9160    5.9567   -3.4508 O   0  0  0  0  0  0  0  0  0  0  0  0
    4.4103    7.0512   -2.8309 C   0  0  0  0  0  0  0  0  0  0  0  0
    4.3473    7.2425   -1.6293 O   0  0  0  0  0  0  0  0  0  0  0  0
    3.9904    8.0154   -3.8700 C   0  0  0  0  0  0  0  0  0  0  0  0
    3.6542    9.2669   -3.5341 C   0  0  0  0  0  0  0  0  0  0  0  0
    7.4390    6.1557   -1.8695 C   0  0  0  0  0  0  0  0  0  0  0  0
    8.8686    6.1314   -1.7097 O   0  0  0  0  0  0  0  0  0  0  0  0
    9.4689    7.3517   -1.7526 C   0  0  0  0  0  0  0  0  0  0  0  0
    8.9190    8.4278   -1.9090 O   0  0  0  0  0  0  0  0  0  0  0  0
   10.9235    7.1719   -1.5438 C   0  0  0  0  0  0  0  0  0  0  0  0
   11.7349    8.2392   -1.5288 C   0  0  0  0  0  0  0  0  0  0  0  0
    7.5623    4.5971   -3.8852 C   0  0  0  0  0  0  0  0  0  0  0  0
    7.3925    5.7357   -4.7507 O   0  0  0  0  0  0  0  0  0  0  0  0
    8.5109    6.4212   -5.0936 C   0  0  0  0  0  0  0  0  0  0  0  0
    9.6593    6.1608   -4.7782 O   0  0  0  0  0  0  0  0  0  0  0  0
    8.0898    7.5850   -5.9018 C   0  0  0  0  0  0  0  0  0  0  0  0
    8.9548    8.5554   -6.2193 C   0  0  0  0  0  0  0  0  0  0  0  0
    6.5124    2.0129    1.2439 C   0  0  0  0  0  0  0  0  0  0  0  0
    7.9230    2.2352    1.4380 O   0  0  0  0  0  0  0  0  0  0  0  0
    8.5128    1.5638    2.4560 C   0  0  0  0  0  0  0  0  0  0  0  0
    7.9627    0.8048    3.2367 O   0  0  0  0  0  0  0  0  0  0  0  0
    9.9593    1.8472    2.4147 C   0  0  0  0  0  0  0  0  0  0  0  0
   10.8061    1.0934    3.1262 C   0  0  0  0  0  0  0  0  0  0  0  0
    6.5629   -0.4103    0.6259 C   0  0  0  0  0  0  0  0  0  0  0  0
    6.2681   -1.4348   -0.3448 O   0  0  0  0  0  0  0  0  0  0  0  0
    7.3081   -2.2286   -0.7103 C   0  0  0  0  0  0  0  0  0  0  0  0
    8.4776   -2.0981   -0.3910 O   0  0  0  0  0  0  0  0  0  0  0  0
    6.7835   -3.3159   -1.5620 C   0  0  0  0  0  0  0  0  0  0  0  0
    7.5420   -4.3888   -1.8304 C   0  0  0  0  0  0  0  0  0  0  0  0
    0.8660    2.4881    3.6832 H   0  0  0  0  0  0  0  0  0  0  0  0
    1.3534    3.6796    2.3464 H   0  0  0  0  0  0  0  0  0  0  0  0
    2.4407    0.8218    2.7899 H   0  0  0  0  0  0  0  0  0  0  0  0
    4.5473    2.0126   -0.8730 H   0  0  0  0  0  0  0  0  0  0  0  0
    4.4938    0.2698   -0.9905 H   0  0  0  0  0  0  0  0  0  0  0  0
    7.0475    0.4564   -1.8506 H   0  0  0  0  0  0  0  0  0  0  0  0
    8.1907    1.3704   -0.9007 H   0  0  0  0  0  0  0  0  0  0  0  0
    8.4307    3.5360   -1.5512 H   0  0  0  0  0  0  0  0  0  0  0  0
    7.0360    3.9224   -0.5393 H   0  0  0  0  0  0  0  0  0  0  0  0
    4.9184    4.9388   -1.6122 H   0  0  0  0  0  0  0  0  0  0  0  0
    5.0046    3.9645   -3.0650 H   0  0  0  0  0  0  0  0  0  0  0  0
    3.9687    7.6771   -4.8979 H   0  0  0  0  0  0  0  0  0  0  0  0
    3.6887    9.6026   -2.5007 H   0  0  0  0  0  0  0  0  0  0  0  0
    3.3462    9.9857   -4.2850 H   0  0  0  0  0  0  0  0  0  0  0  0
    7.0070    6.2860   -0.8702 H   0  0  0  0  0  0  0  0  0  0  0  0
    7.1307    7.0100   -2.4786 H   0  0  0  0  0  0  0  0  0  0  0  0
   11.3007    6.1662   -1.4085 H   0  0  0  0  0  0  0  0  0  0  0  0
   11.3446    9.2445   -1.6724 H   0  0  0  0  0  0  0  0  0  0  0  0
   12.8046    8.1318   -1.3816 H   0  0  0  0  0  0  0  0  0  0  0  0
    7.0715    3.7559   -4.3886 H   0  0  0  0  0  0  0  0  0  0  0  0
    8.6194    4.3226   -3.7950 H   0  0  0  0  0  0  0  0  0  0  0  0
    7.0530    7.6309   -6.2094 H   0  0  0  0  0  0  0  0  0  0  0  0
    9.9923    8.5204   -5.8982 H   0  0  0  0  0  0  0  0  0  0  0  0
    8.6341    9.4193   -6.7915 H   0  0  0  0  0  0  0  0  0  0  0  0
    6.0393    1.6895    2.1792 H   0  0  0  0  0  0  0  0  0  0  0  0
    6.0694    2.9886    1.0243 H   0  0  0  0  0  0  0  0  0  0  0  0
   10.3036    2.6582    1.7865 H   0  0  0  0  0  0  0  0  0  0  0  0
   10.4541    0.2628    3.7311 H   0  0  0  0  0  0  0  0  0  0  0  0
   11.8725    1.2794    3.1056 H   0  0  0  0  0  0  0  0  0  0  0  0
    5.9419   -0.6325    1.5020 H   0  0  0  0  0  0  0  0  0  0  0  0
    7.6031   -0.4728    0.9592 H   0  0  0  0  0  0  0  0  0  0  0  0
    5.7746   -3.2224   -1.9421 H   0  0  0  0  0  0  0  0  0  0  0  0
    8.5510   -4.4837   -1.4362 H   0  0  0  0  0  0  0  0  0  0  0  0
    7.1672   -5.2005   -2.4445 H   0  0  0  0  0  0  0  0  0  0  0  0
  1  2  2  0  0  0  0
  1 42  1  0  0  0  0
  1 43  1  0  0  0  0
  2  3  1  0  0  0  0
  2 44  1  0  0  0  0
  3  4  2  0  0  0  0
  3  5  1  0  0  0  0
  5  6  1  0  0  0  0
  6  7  1  0  0  0  0
  6 45  1  0  0  0  0
  6 46  1  0  0  0  0
  7  8  1  0  0  0  0
  7 30  1  0  0  0  0
  7 36  1  0  0  0  0
  8  9  1  0  0  0  0
  8 47  1  0  0  0  0
  8 48  1  0  0  0  0
  9 10  1  0  0  0  0
 10 11  1  0  0  0  0
 10 49  1  0  0  0  0
 10 50  1  0  0  0  0
 11 12  1  0  0  0  0
 11 18  1  0  0  0  0
 11 24  1  0  0  0  0
 12 13  1  0  0  0  0
 12 51  1  0  0  0  0
 12 52  1  0  0  0  0
 13 14  1  0  0  0  0
 14 15  2  0  0  0  0
 14 16  1  0  0  0  0
 16 17  2  0  0  0  0
 16 53  1  0  0  0  0
 17 54  1  0  0  0  0
 17 55  1  0  0  0  0
 18 19  1  0  0  0  0
 18 56  1  0  0  0  0
 18 57  1  0  0  0  0
 19 20  1  0  0  0  0
 20 21  2  0  0  0  0
 20 22  1  0  0  0  0
 22 23  2  0  0  0  0
 22 58  1  0  0  0  0
 23 59  1  0  0  0  0
 23 60  1  0  0  0  0
 24 25  1  0  0  0  0
 24 61  1  0  0  0  0
 24 62  1  0  0  0  0
 25 26  1  0  0  0  0
 26 27  2  0  0  0  0
 26 28  1  0  0  0  0
 28 29  2  0  0  0  0
 28 63  1  0  0  0  0
 29 64  1  0  0  0  0
 29 65  1  0  0  0  0
 30 31  1  0  0  0  0
 30 66  1  0  0  0  0
 30 67  1  0  0  0  0
 31 32  1  0  0  0  0
 32 33  2  0  0  0  0
 32 34  1  0  0  0  0
 34 35  2  0  0  0  0
 34 68  1  0  0  0  0
 35 69  1  0  0  0  0
 35 70  1  0  0  0  0
 36 37  1  0  0  0  0
 36 71  1  0  0  0  0
 36 72  1  0  0  0  0
 37 38  1  0  0  0  0
 38 39  2  0  0  0  0
 38 40  1  0  0  0  0
 40 41  2  0  0  0  0
 40 73  1  0  0  0  0
 41 74  1  0  0  0  0
 41 75  1  0  0  0  0
M  END
