
 OpenBabel10072619433D

120126  0  0  1  0  0  0  0  0999 V2000
    0.1216    3.7614   -0.2385 C   0  0  0  0  0  0  0  0  0  0  0  0
   -0.1268    2.2994    0.1574 C   0  0  0  0  0  0  0  0  0  0  0  0
   -0.8204    1.6060   -1.0332 C   0  0  0  0  0  0  0  0  0  0  0  0
    1.2632    1.6463    0.3563 C   0  0  0  0  0  0  0  0  0  0  0  0
   -0.9489    2.1698    1.4873 C   0  0  1  0  0  0  0  0  0  0  0  0
   -2.4238    2.6603    1.4185 C   0  0  0  0  0  0  0  0  0  0  0  0
   -3.2899    1.9186    0.9382 O   0  0  0  0  0  0  0  0  0  0  0  0
   -2.7763    3.8954    1.9393 N   0  0  0  0  0  0  0  0  0  0  0  0
   -4.1698    4.3281    1.8733 C   0  0  0  0  0  0  0  0  0  0  0  0
   -4.1000    5.8144    1.5188 C   0  0  1  0  0  0  0  0  0  0  0  0
   -2.8389    6.2597    2.2598 C   0  0  0  0  0  0  0  0  0  0  0  0
   -1.8981    5.0377    2.2301 C   0  0  1  0  0  0  0  0  0  0  0  0
   -1.1604    4.9436    3.5797 C   0  0  0  0  0  0  0  0  0  0  0  0
   -0.0623    5.4672    3.7523 O   0  0  0  0  0  0  0  0  0  0  0  0
   -1.9162    4.4325    4.6112 N   0  0  0  0  0  0  0  0  0  0  0  0
   -1.4853    4.4284    6.0013 C   0  0  1  0  0  0  0  0  0  0  0  0
   -2.1051    3.3434    6.8798 C   0  0  0  0  0  0  0  0  0  0  0  0
   -0.6546    3.2551    6.5151 C   0  0  2  0  0  0  0  0  0  0  0  0
    0.3355    3.4331    7.5785 C   0  0  0  0  0  0  0  0  0  0  0  0
    1.6084    3.8053    7.4002 C   0  0  0  0  0  0  0  0  0  0  0  0
   -1.3050    5.7979    6.6526 C   0  0  0  0  0  0  0  0  0  0  0  0
   -2.1053    6.1928    7.4894 O   0  0  0  0  0  0  0  0  0  0  0  0
   -0.2394    6.5535    6.1620 N   0  0  0  0  0  0  0  0  0  0  0  0
    0.4009    7.9128    6.8466 S   0  0  0  0  0  0  0  0  0  0  0  0
    0.3839    7.7770    8.2877 O   0  0  0  0  0  0  0  0  0  0  0  0
    1.6586    8.1120    6.1564 O   0  0  0  0  0  0  0  0  0  0  0  0
   -0.6692    9.3379    6.4217 C   0  0  0  0  0  0  0  0  0  0  0  0
   -0.5522    9.7712    4.9752 C   0  0  0  0  0  0  0  0  0  0  0  0
    0.0884   10.6008    6.0619 C   0  0  0  0  0  0  0  0  0  0  0  0
   -1.9631    9.3060    7.1729 C   0  0  0  0  0  0  0  0  0  0  0  0
   -2.8182   10.5508    7.0353 C   0  0  0  0  0  0  0  0  0  0  0  0
   -3.7583   10.6608    5.9976 C   0  0  0  0  0  0  0  0  0  0  0  0
   -4.5523   11.8009    5.8857 C   0  0  0  0  0  0  0  0  0  0  0  0
   -4.4161   12.8225    6.8157 C   0  0  0  0  0  0  0  0  0  0  0  0
   -3.4745   12.7457    7.8323 C   0  0  0  0  0  0  0  0  0  0  0  0
   -2.6752   11.6097    7.9457 C   0  0  0  0  0  0  0  0  0  0  0  0
   -5.1942   13.9077    6.7188 F   0  0  0  0  0  0  0  0  0  0  0  0
   -4.0440    5.8643    0.0906 O   0  0  0  0  0  0  0  0  0  0  0  0
   -3.6182    6.9784   -0.5737 C   0  0  0  0  0  0  0  0  0  0  0  0
   -2.7607    6.6706   -1.6338 C   0  0  0  0  0  0  0  0  0  0  0  0
   -2.2672    7.6830   -2.4408 C   0  0  0  0  0  0  0  0  0  0  0  0
   -2.5802    8.9766   -2.1883 N   0  0  0  0  0  0  0  0  0  0  0  0
   -3.4469    9.2805   -1.2058 C   0  0  0  0  0  0  0  0  0  0  0  0
   -4.0395    8.3088   -0.3727 C   0  0  0  0  0  0  0  0  0  0  0  0
   -5.0370    8.7344    0.5378 C   0  0  0  0  0  0  0  0  0  0  0  0
   -5.3905   10.0785    0.6682 C   0  0  0  0  0  0  0  0  0  0  0  0
   -4.7836   11.0260   -0.1403 C   0  0  0  0  0  0  0  0  0  0  0  0
   -3.8103   10.6129   -1.0528 C   0  0  0  0  0  0  0  0  0  0  0  0
   -5.0712   12.3624   -0.1616 O   0  0  0  0  0  0  0  0  0  0  0  0
   -6.2089   12.7836    0.5834 C   0  0  0  0  0  0  0  0  0  0  0  0
   -1.4440    7.4334   -3.6505 C   0  0  0  0  0  0  0  0  0  0  0  0
   -1.4392    8.3566   -4.7161 C   0  0  0  0  0  0  0  0  0  0  0  0
   -0.6976    8.1383   -5.8840 C   0  0  0  0  0  0  0  0  0  0  0  0
    0.0700    6.9864   -6.0148 C   0  0  0  0  0  0  0  0  0  0  0  0
    0.0821    6.0502   -4.9851 C   0  0  0  0  0  0  0  0  0  0  0  0
   -0.6621    6.2736   -3.8175 C   0  0  0  0  0  0  0  0  0  0  0  0
   -1.0342    0.7519    1.8606 N   0  0  0  0  0  0  0  0  0  0  0  0
   -1.2613    0.2924    3.1152 C   0  0  0  0  0  0  0  0  0  0  0  0
   -1.3865    0.9856    4.1112 O   0  0  0  0  0  0  0  0  0  0  0  0
   -1.3179   -1.0544    3.0494 O   0  0  0  0  0  0  0  0  0  0  0  0
   -1.4420   -1.8787    4.2352 C   0  0  0  0  0  0  0  0  0  0  0  0
   -2.8107   -1.6868    4.8904 C   0  0  0  0  0  0  0  0  0  0  0  0
   -1.3304   -3.3228    3.7199 C   0  0  0  0  0  0  0  0  0  0  0  0
   -0.2954   -1.6228    5.2194 C   0  0  0  0  0  0  0  0  0  0  0  0
    0.7570    3.8278   -1.1289 H   0  0  0  0  0  0  0  0  0  0  0  0
    0.6363    4.3055    0.5593 H   0  0  0  0  0  0  0  0  0  0  0  0
   -0.8120    4.2754   -0.4815 H   0  0  0  0  0  0  0  0  0  0  0  0
   -0.2095    1.6834   -1.9398 H   0  0  0  0  0  0  0  0  0  0  0  0
   -1.7884    2.0653   -1.2575 H   0  0  0  0  0  0  0  0  0  0  0  0
   -0.9851    0.5392   -0.8543 H   0  0  0  0  0  0  0  0  0  0  0  0
    1.8880    1.7632   -0.5364 H   0  0  0  0  0  0  0  0  0  0  0  0
    1.1886    0.5716    0.5555 H   0  0  0  0  0  0  0  0  0  0  0  0
    1.7939    2.1078    1.1965 H   0  0  0  0  0  0  0  0  0  0  0  0
   -0.4334    2.6845    2.3035 H   0  0  0  0  0  0  0  0  0  0  0  0
   -4.5968    4.1803    2.8710 H   0  0  0  0  0  0  0  0  0  0  0  0
   -4.7483    3.7512    1.1463 H   0  0  0  0  0  0  0  0  0  0  0  0
   -5.0074    6.2983    1.8824 H   0  0  0  0  0  0  0  0  0  0  0  0
   -3.1100    6.5216    3.2909 H   0  0  0  0  0  0  0  0  0  0  0  0
   -2.3547    7.1398    1.8251 H   0  0  0  0  0  0  0  0  0  0  0  0
   -1.1669    5.1584    1.4341 H   0  0  0  0  0  0  0  0  0  0  0  0
   -2.7300    3.8791    4.3647 H   0  0  0  0  0  0  0  0  0  0  0  0
   -2.7782    2.6228    6.4290 H   0  0  0  0  0  0  0  0  0  0  0  0
   -2.3869    3.6144    7.8919 H   0  0  0  0  0  0  0  0  0  0  0  0
   -0.3879    2.4764    5.8079 H   0  0  0  0  0  0  0  0  0  0  0  0
    0.0126    3.2266    8.5979 H   0  0  0  0  0  0  0  0  0  0  0  0
    2.0091    4.0141    6.4149 H   0  0  0  0  0  0  0  0  0  0  0  0
    2.2809    3.9121    8.2450 H   0  0  0  0  0  0  0  0  0  0  0  0
    0.3222    6.1710    5.3928 H   0  0  0  0  0  0  0  0  0  0  0  0
   -1.4130   10.1938    4.4724 H   0  0  0  0  0  0  0  0  0  0  0  0
    0.1091    9.2329    4.3047 H   0  0  0  0  0  0  0  0  0  0  0  0
   -0.3477   11.5694    6.2767 H   0  0  0  0  0  0  0  0  0  0  0  0
    1.1724   10.6146    6.1165 H   0  0  0  0  0  0  0  0  0  0  0  0
   -1.7848    9.1390    8.2423 H   0  0  0  0  0  0  0  0  0  0  0  0
   -2.5638    8.4602    6.8244 H   0  0  0  0  0  0  0  0  0  0  0  0
   -3.8654    9.8613    5.2679 H   0  0  0  0  0  0  0  0  0  0  0  0
   -5.2658   11.9012    5.0757 H   0  0  0  0  0  0  0  0  0  0  0  0
   -3.3592   13.5738    8.5221 H   0  0  0  0  0  0  0  0  0  0  0  0
   -1.9371   11.5492    8.7432 H   0  0  0  0  0  0  0  0  0  0  0  0
   -2.5328    5.6303   -1.8390 H   0  0  0  0  0  0  0  0  0  0  0  0
   -5.6089    8.0262    1.1223 H   0  0  0  0  0  0  0  0  0  0  0  0
   -6.1533   10.3433    1.3929 H   0  0  0  0  0  0  0  0  0  0  0  0
   -3.3448   11.3543   -1.6992 H   0  0  0  0  0  0  0  0  0  0  0  0
   -6.4442   13.8118    0.2914 H   0  0  0  0  0  0  0  0  0  0  0  0
   -5.9854   12.7752    1.6553 H   0  0  0  0  0  0  0  0  0  0  0  0
   -7.0915   12.1727    0.3622 H   0  0  0  0  0  0  0  0  0  0  0  0
   -2.0336    9.2667   -4.6450 H   0  0  0  0  0  0  0  0  0  0  0  0
   -0.7246    8.8704   -6.6880 H   0  0  0  0  0  0  0  0  0  0  0  0
    0.6525    6.8174   -6.9177 H   0  0  0  0  0  0  0  0  0  0  0  0
    0.6737    5.1430   -5.0883 H   0  0  0  0  0  0  0  0  0  0  0  0
   -0.6074    5.5201   -3.0366 H   0  0  0  0  0  0  0  0  0  0  0  0
   -1.2752    0.0737    1.1488 H   0  0  0  0  0  0  0  0  0  0  0  0
   -3.6146   -1.8121    4.1571 H   0  0  0  0  0  0  0  0  0  0  0  0
   -2.9230   -0.6813    5.3069 H   0  0  0  0  0  0  0  0  0  0  0  0
   -2.9675   -2.4036    5.7032 H   0  0  0  0  0  0  0  0  0  0  0  0
   -2.1116   -3.5344    2.9807 H   0  0  0  0  0  0  0  0  0  0  0  0
   -1.4139   -4.0546    4.5310 H   0  0  0  0  0  0  0  0  0  0  0  0
   -0.3725   -3.4797    3.2095 H   0  0  0  0  0  0  0  0  0  0  0  0
   -0.4260   -0.6772    5.7553 H   0  0  0  0  0  0  0  0  0  0  0  0
    0.6642   -1.5604    4.6943 H   0  0  0  0  0  0  0  0  0  0  0  0
   -0.2288   -2.4161    5.9724 H   0  0  0  0  0  0  0  0  0  0  0  0
  1  2  1  0  0  0  0
  1 65  1  0  0  0  0
  1 66  1  0  0  0  0
  1 67  1  0  0  0  0
  2  3  1  0  0  0  0
  2  4  1  0  0  0  0
  2  5  1  0  0  0  0
  3 68  1  0  0  0  0
  3 69  1  0  0  0  0
  3 70  1  0  0  0  0
  4 71  1  0  0  0  0
  4 72  1  0  0  0  0
  4 73  1  0  0  0  0
  5  6  1  0  0  0  0
  5 57  1  0  0  0  0
  5 74  1  1  0  0  0
  6  7  2  0  0  0  0
  6  8  1  0  0  0  0
  8  9  1  0  0  0  0
  8 12  1  0  0  0  0
  9 10  1  0  0  0  0
  9 75  1  0  0  0  0
  9 76  1  0  0  0  0
 10 11  1  0  0  0  0
 10 38  1  0  0  0  0
 10 77  1  1  0  0  0
 11 12  1  0  0  0  0
 11 78  1  0  0  0  0
 11 79  1  0  0  0  0
 12 13  1  0  0  0  0
 12 80  1  6  0  0  0
 13 14  2  0  0  0  0
 13 15  1  0  0  0  0
 15 81  1  0  0  0  0
 16 17  1  0  0  0  0
 16 18  1  0  0  0  0
 16 21  1  1  0  0  0
 16 15  1  0  0  0  0
 17 18  1  0  0  0  0
 17 82  1  0  0  0  0
 17 83  1  0  0  0  0
 18 19  1  0  0  0  0
 18 84  1  6  0  0  0
 19 20  2  0  0  0  0
 19 85  1  0  0  0  0
 20 86  1  0  0  0  0
 20 87  1  0  0  0  0
 21 22  2  0  0  0  0
 21 23  1  0  0  0  0
 23 24  1  0  0  0  0
 23 88  1  0  0  0  0
 24 25  2  0  0  0  0
 24 26  2  0  0  0  0
 24 27  1  0  0  0  0
 27 28  1  0  0  0  0
 27 29  1  0  0  0  0
 27 30  1  0  0  0  0
 28 29  1  0  0  0  0
 28 89  1  0  0  0  0
 28 90  1  0  0  0  0
 29 91  1  0  0  0  0
 29 92  1  0  0  0  0
 30 31  1  0  0  0  0
 30 93  1  0  0  0  0
 30 94  1  0  0  0  0
 31 32  2  0  0  0  0
 31 36  1  0  0  0  0
 32 33  1  0  0  0  0
 32 95  1  0  0  0  0
 33 34  2  0  0  0  0
 33 96  1  0  0  0  0
 34 35  1  0  0  0  0
 34 37  1  0  0  0  0
 35 36  2  0  0  0  0
 35 97  1  0  0  0  0
 36 98  1  0  0  0  0
 38 39  1  0  0  0  0
 39 40  2  0  0  0  0
 39 44  1  0  0  0  0
 40 41  1  0  0  0  0
 40 99  1  0  0  0  0
 41 42  2  0  0  0  0
 41 51  1  0  0  0  0
 42 43  1  0  0  0  0
 43 44  2  0  0  0  0
 43 48  1  0  0  0  0
 44 45  1  0  0  0  0
 45 46  2  0  0  0  0
 45100  1  0  0  0  0
 46 47  1  0  0  0  0
 46101  1  0  0  0  0
 47 48  2  0  0  0  0
 47 49  1  0  0  0  0
 48102  1  0  0  0  0
 49 50  1  0  0  0  0
 50103  1  0  0  0  0
 50104  1  0  0  0  0
 50105  1  0  0  0  0
 51 52  2  0  0  0  0
 51 56  1  0  0  0  0
 52 53  1  0  0  0  0
 52106  1  0  0  0  0
 53 54  2  0  0  0  0
 53107  1  0  0  0  0
 54 55  1  0  0  0  0
 54108  1  0  0  0  0
 55 56  2  0  0  0  0
 55109  1  0  0  0  0
 56110  1  0  0  0  0
 57 58  1  0  0  0  0
 57111  1  0  0  0  0
 58 59  2  0  0  0  0
 58 60  1  0  0  0  0
 60 61  1  0  0  0  0
 61 62  1  0  0  0  0
 61 63  1  0  0  0  0
 61 64  1  0  0  0  0
 62112  1  0  0  0  0
 62113  1  0  0  0  0
 62114  1  0  0  0  0
 63115  1  0  0  0  0
 63116  1  0  0  0  0
 63117  1  0  0  0  0
 64118  1  0  0  0  0
 64119  1  0  0  0  0
 64120  1  0  0  0  0
M  END
