
 OpenBabel10072620223D

 40 42  0  0  0  0  0  0  0  0999 V2000
    0.7332    1.3432   -0.7608 C   0  0  0  0  0  0  0  0  0  0  0  0
    0.0981    0.3091   -1.4490 C   0  0  0  0  0  0  0  0  0  0  0  0
   -1.1296   -0.1909   -1.0021 C   0  0  0  0  0  0  0  0  0  0  0  0
   -1.7305    0.3436    0.1463 C   0  0  0  0  0  0  0  0  0  0  0  0
   -1.0878    1.3812    0.8275 C   0  0  0  0  0  0  0  0  0  0  0  0
    0.1440    1.8844    0.3807 C   0  0  0  0  0  0  0  0  0  0  0  0
   -1.6360    1.9587    2.0422 N   0  3  0  0  0  0  0  0  0  0  0  0
   -1.8620    1.1869    2.9800 O   0  0  0  0  0  0  0  0  0  0  0  0
   -1.7538    3.1908    2.0704 O   0  5  0  0  0  0  0  0  0  0  0  0
   -3.3238   -0.2225    0.6724 S   0  0  0  0  0  0  0  0  0  0  0  0
   -3.1083   -1.2557    1.6598 O   0  0  0  0  0  0  0  0  0  0  0  0
   -4.1302    0.9535    0.8997 O   0  0  0  0  0  0  0  0  0  0  0  0
   -3.9284   -1.0484   -0.7046 N   0  0  0  0  0  0  0  0  0  0  0  0
   -5.3598   -1.0274   -0.8114 C   0  0  0  0  0  0  0  0  0  0  0  0
   -5.9647   -0.0631   -1.6178 C   0  0  0  0  0  0  0  0  0  0  0  0
   -7.3569   -0.0066   -1.7088 C   0  0  0  0  0  0  0  0  0  0  0  0
   -8.1332   -0.9164   -0.9840 C   0  0  0  0  0  0  0  0  0  0  0  0
   -7.5292   -1.8600   -0.1463 C   0  0  0  0  0  0  0  0  0  0  0  0
   -6.1366   -1.9133   -0.0603 C   0  0  0  0  0  0  0  0  0  0  0  0
   -9.9093   -0.8239   -1.0708 S   0  0  0  0  0  0  0  0  0  0  0  0
  -10.4292   -1.4352    0.1358 O   0  0  0  0  0  0  0  0  0  0  0  0
  -10.2691    0.5279   -1.4309 O   0  0  0  0  0  0  0  0  0  0  0  0
  -10.2229   -1.9122   -2.3035 N   0  0  0  0  0  0  0  0  0  0  0  0
  -10.8399   -1.4236   -3.4737 C   0  0  0  0  0  0  0  0  0  0  0  0
  -11.8290   -2.1367   -3.9576 N   0  0  0  0  0  0  0  0  0  0  0  0
  -12.2778   -1.5611   -5.1312 C   0  0  0  0  0  0  0  0  0  0  0  0
  -11.5841   -0.4459   -5.5493 C   0  0  0  0  0  0  0  0  0  0  0  0
  -10.3171   -0.1153   -4.4424 S   0  0  0  0  0  0  0  0  0  0  0  0
    1.6873    1.7278   -1.1163 H   0  0  0  0  0  0  0  0  0  0  0  0
    0.5602   -0.1071   -2.3426 H   0  0  0  0  0  0  0  0  0  0  0  0
   -1.5975   -0.9880   -1.5737 H   0  0  0  0  0  0  0  0  0  0  0  0
    0.6465    2.6891    0.9156 H   0  0  0  0  0  0  0  0  0  0  0  0
   -3.6181   -2.0171   -0.5841 H   0  0  0  0  0  0  0  0  0  0  0  0
   -5.3589    0.6505   -2.1697 H   0  0  0  0  0  0  0  0  0  0  0  0
   -7.8225    0.7545   -2.3304 H   0  0  0  0  0  0  0  0  0  0  0  0
   -8.1311   -2.5425    0.4499 H   0  0  0  0  0  0  0  0  0  0  0  0
   -5.6725   -2.6350    0.6077 H   0  0  0  0  0  0  0  0  0  0  0  0
  -10.7365   -2.7207   -1.9564 H   0  0  0  0  0  0  0  0  0  0  0  0
  -13.1206   -2.0017   -5.6506 H   0  0  0  0  0  0  0  0  0  0  0  0
  -11.7469    0.1632   -6.4269 H   0  0  0  0  0  0  0  0  0  0  0  0
  1  2  2  0  0  0  0
  1  6  1  0  0  0  0
  1 29  1  0  0  0  0
  2  3  1  0  0  0  0
  2 30  1  0  0  0  0
  3  4  2  0  0  0  0
  3 31  1  0  0  0  0
  4  5  1  0  0  0  0
  4 10  1  0  0  0  0
  5  6  2  0  0  0  0
  5  7  1  0  0  0  0
  6 32  1  0  0  0  0
  7  8  2  0  0  0  0
  7  9  1  0  0  0  0
 10 11  2  0  0  0  0
 10 12  2  0  0  0  0
 10 13  1  0  0  0  0
 13 14  1  0  0  0  0
 13 33  1  0  0  0  0
 14 15  2  0  0  0  0
 14 19  1  0  0  0  0
 15 16  1  0  0  0  0
 15 34  1  0  0  0  0
 16 17  2  0  0  0  0
 16 35  1  0  0  0  0
 17 18  1  0  0  0  0
 17 20  1  0  0  0  0
 18 19  2  0  0  0  0
 18 36  1  0  0  0  0
 19 37  1  0  0  0  0
 20 21  2  0  0  0  0
 20 22  2  0  0  0  0
 20 23  1  0  0  0  0
 23 24  1  0  0  0  0
 23 38  1  0  0  0  0
 24 25  2  0  0  0  0
 24 28  1  0  0  0  0
 25 26  1  0  0  0  0
 26 27  2  0  0  0  0
 26 39  1  0  0  0  0
 27 28  1  0  0  0  0
 27 40  1  0  0  0  0
M  CHG  2   7   1   9  -1
M  END
