
 OpenBabel10072620003D

 29 29  0  0  0  0  0  0  0  0999 V2000
    3.3569    0.3429    1.5197 C   0  0  0  0  0  0  0  0  0  0  0  0
    2.7834    0.0142    0.1404 C   0  0  0  0  0  0  0  0  0  0  0  0
    2.7629   -1.4990   -0.0978 C   0  0  0  0  0  0  0  0  0  0  0  0
    1.3380    0.5410    0.0750 C   0  0  0  0  0  0  0  0  0  0  0  0
    3.5185    0.6796   -0.9506 N   0  0  0  0  0  0  0  0  0  0  0  0
    5.1788    0.7495   -1.1230 S   0  0  0  0  0  0  0  0  0  0  0  0
    5.7386   -0.4722   -0.5873 O   0  0  0  0  0  0  0  0  0  0  0  0
    5.4370    1.1422   -2.4909 O   0  0  0  0  0  0  0  0  0  0  0  0
    5.6872    2.0943   -0.0925 C   0  0  0  0  0  0  0  0  0  0  0  0
    6.6850    1.8483    0.8653 C   0  0  0  0  0  0  0  0  0  0  0  0
    7.1383    2.8784    1.6890 C   0  0  0  0  0  0  0  0  0  0  0  0
    6.5997    4.1555    1.5609 C   0  0  0  0  0  0  0  0  0  0  0  0
    5.6100    4.4028    0.6070 C   0  0  0  0  0  0  0  0  0  0  0  0
    5.1504    3.3760   -0.2289 C   0  0  0  0  0  0  0  0  0  0  0  0
    3.9335    3.8038   -1.3766 Cl  0  0  0  0  0  0  0  0  0  0  0  0
    2.7327   -0.0825    2.3143 H   0  0  0  0  0  0  0  0  0  0  0  0
    3.4059    1.4248    1.6847 H   0  0  0  0  0  0  0  0  0  0  0  0
    4.3632   -0.0649    1.6546 H   0  0  0  0  0  0  0  0  0  0  0  0
    2.1081   -2.0020    0.6230 H   0  0  0  0  0  0  0  0  0  0  0  0
    3.7575   -1.9431    0.0039 H   0  0  0  0  0  0  0  0  0  0  0  0
    2.3998   -1.7377   -1.1041 H   0  0  0  0  0  0  0  0  0  0  0  0
    0.7128    0.0898    0.8536 H   0  0  0  0  0  0  0  0  0  0  0  0
    0.8762    0.3178   -0.8943 H   0  0  0  0  0  0  0  0  0  0  0  0
    1.3067    1.6290    0.2063 H   0  0  0  0  0  0  0  0  0  0  0  0
    3.0326    0.8328   -1.8346 H   0  0  0  0  0  0  0  0  0  0  0  0
    7.1235    0.8570    0.9692 H   0  0  0  0  0  0  0  0  0  0  0  0
    7.9167    2.6847    2.4239 H   0  0  0  0  0  0  0  0  0  0  0  0
    6.9543    4.9623    2.1983 H   0  0  0  0  0  0  0  0  0  0  0  0
    5.2053    5.4089    0.5134 H   0  0  0  0  0  0  0  0  0  0  0  0
  1  2  1  0  0  0  0
  1 16  1  0  0  0  0
  1 17  1  0  0  0  0
  1 18  1  0  0  0  0
  2  3  1  0  0  0  0
  2  4  1  0  0  0  0
  2  5  1  0  0  0  0
  3 19  1  0  0  0  0
  3 20  1  0  0  0  0
  3 21  1  0  0  0  0
  4 22  1  0  0  0  0
  4 23  1  0  0  0  0
  4 24  1  0  0  0  0
  5  6  1  0  0  0  0
  5 25  1  0  0  0  0
  6  7  2  0  0  0  0
  6  8  2  0  0  0  0
  6  9  1  0  0  0  0
  9 10  2  0  0  0  0
  9 14  1  0  0  0  0
 10 11  1  0  0  0  0
 10 26  1  0  0  0  0
 11 12  2  0  0  0  0
 11 27  1  0  0  0  0
 12 13  1  0  0  0  0
 12 28  1  0  0  0  0
 13 14  2  0  0  0  0
 13 29  1  0  0  0  0
 14 15  1  0  0  0  0
M  END
