
 OpenBabel10072620073D

 76 81  0  0  1  0  0  0  0  0999 V2000
    0.5478    1.8271   -1.3259 C   0  0  0  0  0  0  0  0  0  0  0  0
   -0.2225    0.9432   -0.3895 C   0  0  0  0  0  0  0  0  0  0  0  0
   -0.5253    1.3602    0.9090 C   0  0  0  0  0  0  0  0  0  0  0  0
   -1.1938    0.5382    1.8065 C   0  0  0  0  0  0  0  0  0  0  0  0
   -1.5721   -0.7390    1.3969 C   0  0  0  0  0  0  0  0  0  0  0  0
   -1.3161   -1.2093    0.0906 C   0  0  0  0  0  0  0  0  0  0  0  0
   -0.5981   -0.3556   -0.7751 C   0  0  0  0  0  0  0  0  0  0  0  0
   -1.7982   -2.6069   -0.3443 C   0  0  3  0  0  0  0  0  0  0  0  0
   -2.6850   -3.1211    0.7123 O   0  0  0  0  0  0  0  0  0  0  0  0
   -3.7980   -3.7405    0.2442 C   0  0  0  0  0  0  0  0  0  0  0  0
   -4.6097   -4.3599    0.8941 O   0  0  0  0  0  0  0  0  0  0  0  0
   -3.8690   -3.3995   -1.1646 C   0  0  0  0  0  0  0  0  0  0  0  0
   -4.9224   -3.6757   -2.0268 C   0  0  0  0  0  0  0  0  0  0  0  0
   -4.8644   -3.1244   -3.3041 C   0  0  0  0  0  0  0  0  0  0  0  0
   -3.7801   -2.3069   -3.6680 C   0  0  0  0  0  0  0  0  0  0  0  0
   -2.7237   -2.0593   -2.7745 C   0  0  0  0  0  0  0  0  0  0  0  0
   -2.7613   -2.6371   -1.5086 C   0  0  0  0  0  0  0  0  0  0  0  0
   -0.6467   -3.6316   -0.4204 C   0  0  0  0  0  0  0  0  0  0  0  0
    0.1530   -3.7958   -1.5694 C   0  0  0  0  0  0  0  0  0  0  0  0
    1.1772   -4.7597   -1.6150 C   0  0  0  0  0  0  0  0  0  0  0  0
    1.3602   -5.5886   -0.5013 C   0  0  0  0  0  0  0  0  0  0  0  0
    0.6135   -5.4293    0.6571 C   0  0  0  0  0  0  0  0  0  0  0  0
   -0.3686   -4.4494    0.6985 C   0  0  0  0  0  0  0  0  0  0  0  0
    2.3839   -6.5374   -0.4531 O   0  0  0  0  0  0  0  0  0  0  0  0
    2.0900   -7.7110   -1.1164 C   0  0  0  0  0  0  0  0  0  0  0  0
    1.0944   -7.9928   -1.7657 O   0  0  0  0  0  0  0  0  0  0  0  0
    3.2605   -8.5961   -0.9394 C   0  0  0  0  0  0  0  0  0  0  0  0
    3.5202   -9.5284   -1.8685 C   0  0  0  0  0  0  0  0  0  0  0  0
    4.5848  -10.5405   -1.7988 C   0  0  0  0  0  0  0  0  0  0  0  0
    5.2565  -10.8616   -0.6102 C   0  0  0  0  0  0  0  0  0  0  0  0
    6.1413  -11.9431   -0.5614 C   0  0  0  0  0  0  0  0  0  0  0  0
    6.3612  -12.7112   -1.7010 C   0  0  0  0  0  0  0  0  0  0  0  0
    5.7408  -12.3789   -2.9016 C   0  0  0  0  0  0  0  0  0  0  0  0
    4.8587  -11.2957   -2.9497 C   0  0  0  0  0  0  0  0  0  0  0  0
    7.3862  -14.0894   -1.6185 Cl  0  0  0  0  0  0  0  0  0  0  0  0
    2.0045   -4.9309   -2.8559 C   0  0  0  0  0  0  0  0  0  0  0  0
   -0.2789    2.6869    1.2667 O   0  0  0  0  0  0  0  0  0  0  0  0
    0.8155    2.8809    2.0849 C   0  0  0  0  0  0  0  0  0  0  0  0
    1.5995    2.0535    2.5223 O   0  0  0  0  0  0  0  0  0  0  0  0
    0.8316    4.3307    2.3816 C   0  0  0  0  0  0  0  0  0  0  0  0
    1.4687    4.8005    3.4630 C   0  0  0  0  0  0  0  0  0  0  0  0
    1.4638    6.2074    3.9050 C   0  0  0  0  0  0  0  0  0  0  0  0
    0.8382    7.2359    3.1830 C   0  0  0  0  0  0  0  0  0  0  0  0
    0.8585    8.5541    3.6474 C   0  0  0  0  0  0  0  0  0  0  0  0
    1.5049    8.8580    4.8405 C   0  0  0  0  0  0  0  0  0  0  0  0
    2.1246    7.8531    5.5774 C   0  0  0  0  0  0  0  0  0  0  0  0
    2.1039    6.5343    5.1106 C   0  0  0  0  0  0  0  0  0  0  0  0
    1.5450   10.4835    5.3990 Cl  0  0  0  0  0  0  0  0  0  0  0  0
    0.3912    2.8871   -1.1010 H   0  0  0  0  0  0  0  0  0  0  0  0
    0.2283    1.6743   -2.3615 H   0  0  0  0  0  0  0  0  0  0  0  0
    1.6178    1.6177   -1.2362 H   0  0  0  0  0  0  0  0  0  0  0  0
   -1.4273    0.8877    2.8103 H   0  0  0  0  0  0  0  0  0  0  0  0
   -2.0851   -1.3671    2.1225 H   0  0  0  0  0  0  0  0  0  0  0  0
   -0.3227   -0.6894   -1.7703 H   0  0  0  0  0  0  0  0  0  0  0  0
   -5.7720   -4.2724   -1.7036 H   0  0  0  0  0  0  0  0  0  0  0  0
   -5.6737   -3.2993   -4.0110 H   0  0  0  0  0  0  0  0  0  0  0  0
   -3.7668   -1.8458   -4.6548 H   0  0  0  0  0  0  0  0  0  0  0  0
   -1.9098   -1.4129   -3.0889 H   0  0  0  0  0  0  0  0  0  0  0  0
   -0.0148   -3.1738   -2.4448 H   0  0  0  0  0  0  0  0  0  0  0  0
    0.7798   -6.0663    1.5198 H   0  0  0  0  0  0  0  0  0  0  0  0
   -0.9381   -4.3531    1.6220 H   0  0  0  0  0  0  0  0  0  0  0  0
    3.8599   -8.4428   -0.0536 H   0  0  0  0  0  0  0  0  0  0  0  0
    2.8731   -9.5866   -2.7430 H   0  0  0  0  0  0  0  0  0  0  0  0
    5.0817  -10.3044    0.3062 H   0  0  0  0  0  0  0  0  0  0  0  0
    6.6332  -12.1919    0.3750 H   0  0  0  0  0  0  0  0  0  0  0  0
    5.9191  -12.9681   -3.7968 H   0  0  0  0  0  0  0  0  0  0  0  0
    4.3674  -11.0649   -3.8934 H   0  0  0  0  0  0  0  0  0  0  0  0
    2.1588   -3.9759   -3.3668 H   0  0  0  0  0  0  0  0  0  0  0  0
    1.5176   -5.6222   -3.5502 H   0  0  0  0  0  0  0  0  0  0  0  0
    2.9956   -5.3258   -2.6110 H   0  0  0  0  0  0  0  0  0  0  0  0
    0.2563    4.9510    1.7063 H   0  0  0  0  0  0  0  0  0  0  0  0
    2.0113    4.0988    4.0970 H   0  0  0  0  0  0  0  0  0  0  0  0
    0.3212    7.0405    2.2481 H   0  0  0  0  0  0  0  0  0  0  0  0
    0.3689    9.3337    3.0702 H   0  0  0  0  0  0  0  0  0  0  0  0
    2.6256    8.0858    6.5129 H   0  0  0  0  0  0  0  0  0  0  0  0
    2.5922    5.7633    5.7045 H   0  0  0  0  0  0  0  0  0  0  0  0
  1  2  1  0  0  0  0
  1 49  1  0  0  0  0
  1 50  1  0  0  0  0
  1 51  1  0  0  0  0
  2  3  2  0  0  0  0
  2  7  1  0  0  0  0
  3  4  1  0  0  0  0
  3 37  1  0  0  0  0
  4  5  2  0  0  0  0
  4 52  1  0  0  0  0
  5  6  1  0  0  0  0
  5 53  1  0  0  0  0
  6  7  2  0  0  0  0
  6  8  1  0  0  0  0
  7 54  1  0  0  0  0
  8  9  1  0  0  0  0
  8 17  1  0  0  0  0
  8 18  1  0  0  0  0
  9 10  1  0  0  0  0
 10 11  2  0  0  0  0
 10 12  1  0  0  0  0
 12 13  2  0  0  0  0
 12 17  1  0  0  0  0
 13 14  1  0  0  0  0
 13 55  1  0  0  0  0
 14 15  2  0  0  0  0
 14 56  1  0  0  0  0
 15 16  1  0  0  0  0
 15 57  1  0  0  0  0
 16 17  2  0  0  0  0
 16 58  1  0  0  0  0
 18 19  2  0  0  0  0
 18 23  1  0  0  0  0
 19 20  1  0  0  0  0
 19 59  1  0  0  0  0
 20 21  2  0  0  0  0
 20 36  1  0  0  0  0
 21 22  1  0  0  0  0
 21 24  1  0  0  0  0
 22 23  2  0  0  0  0
 22 60  1  0  0  0  0
 23 61  1  0  0  0  0
 24 25  1  0  0  0  0
 25 26  2  0  0  0  0
 25 27  1  0  0  0  0
 27 28  2  0  0  0  0
 27 62  1  0  0  0  0
 28 29  1  0  0  0  0
 28 63  1  0  0  0  0
 29 30  2  0  0  0  0
 29 34  1  0  0  0  0
 30 31  1  0  0  0  0
 30 64  1  0  0  0  0
 31 32  2  0  0  0  0
 31 65  1  0  0  0  0
 32 33  1  0  0  0  0
 32 35  1  0  0  0  0
 33 34  2  0  0  0  0
 33 66  1  0  0  0  0
 34 67  1  0  0  0  0
 36 68  1  0  0  0  0
 36 69  1  0  0  0  0
 36 70  1  0  0  0  0
 37 38  1  0  0  0  0
 38 39  2  0  0  0  0
 38 40  1  0  0  0  0
 40 41  2  0  0  0  0
 40 71  1  0  0  0  0
 41 42  1  0  0  0  0
 41 72  1  0  0  0  0
 42 43  2  0  0  0  0
 42 47  1  0  0  0  0
 43 44  1  0  0  0  0
 43 73  1  0  0  0  0
 44 45  2  0  0  0  0
 44 74  1  0  0  0  0
 45 46  1  0  0  0  0
 45 48  1  0  0  0  0
 46 47  2  0  0  0  0
 46 75  1  0  0  0  0
 47 76  1  0  0  0  0
M  END
