
 OpenBabel10072620123D

 52 53  0  0  0  0  0  0  0  0999 V2000
   13.3681    1.7960    7.0534 C   0  0  0  0  0  0  0  0  0  0  0  0
   12.5064    2.4406    5.9826 C   0  0  0  0  0  0  0  0  0  0  0  0
   12.1068    1.4175    5.0169 N   0  0  0  0  0  0  0  0  0  0  0  0
   11.3333    1.8855    3.5991 S   0  0  0  0  0  0  0  0  0  0  0  0
   12.1358    2.9052    2.9617 O   0  0  0  0  0  0  0  0  0  0  0  0
   10.9471    0.6709    2.9173 O   0  0  0  0  0  0  0  0  0  0  0  0
    9.8516    2.6472    4.2161 C   0  0  0  0  0  0  0  0  0  0  0  0
    9.7232    4.0376    4.2158 C   0  0  0  0  0  0  0  0  0  0  0  0
    8.5591    4.6279    4.7220 C   0  0  0  0  0  0  0  0  0  0  0  0
    7.5232    3.8300    5.2154 C   0  0  0  0  0  0  0  0  0  0  0  0
    7.6629    2.4375    5.1995 C   0  0  0  0  0  0  0  0  0  0  0  0
    8.8196    1.8393    4.6973 C   0  0  0  0  0  0  0  0  0  0  0  0
    6.3435    4.2681    5.7478 O   0  0  0  0  0  0  0  0  0  0  0  0
    6.0670    5.6685    5.7528 C   0  0  0  0  0  0  0  0  0  0  0  0
    6.6250    6.3398    7.0075 C   0  0  0  0  0  0  0  0  0  0  0  0
    6.3212    7.7330    6.9520 O   0  0  0  0  0  0  0  0  0  0  0  0
    6.7195    8.5041    8.0089 C   0  0  0  0  0  0  0  0  0  0  0  0
    7.4534    8.0686    9.1147 C   0  0  0  0  0  0  0  0  0  0  0  0
    7.7907    8.9665   10.1342 C   0  0  0  0  0  0  0  0  0  0  0  0
    7.3955   10.3029   10.0381 C   0  0  0  0  0  0  0  0  0  0  0  0
    6.6570   10.7466    8.9407 C   0  0  0  0  0  0  0  0  0  0  0  0
    6.3271    9.8446    7.9278 C   0  0  0  0  0  0  0  0  0  0  0  0
    7.7990   11.4503   11.3299 S   0  0  0  0  0  0  0  0  0  0  0  0
    6.6053   12.2059   11.6316 O   0  0  0  0  0  0  0  0  0  0  0  0
    8.5454   10.7599   12.3590 O   0  0  0  0  0  0  0  0  0  0  0  0
    8.8455   12.5122   10.5508 N   0  0  0  0  0  0  0  0  0  0  0  0
   10.2556   12.1375   10.4375 C   0  0  0  0  0  0  0  0  0  0  0  0
   10.9319   13.0534    9.4334 C   0  0  0  0  0  0  0  0  0  0  0  0
   13.6580    2.5339    7.8077 H   0  0  0  0  0  0  0  0  0  0  0  0
   14.2775    1.3646    6.6215 H   0  0  0  0  0  0  0  0  0  0  0  0
   12.8228    0.9908    7.5569 H   0  0  0  0  0  0  0  0  0  0  0  0
   13.0711    3.2358    5.4873 H   0  0  0  0  0  0  0  0  0  0  0  0
   11.6210    2.8757    6.4544 H   0  0  0  0  0  0  0  0  0  0  0  0
   11.7726    0.5229    5.3713 H   0  0  0  0  0  0  0  0  0  0  0  0
   10.5213    4.6683    3.8280 H   0  0  0  0  0  0  0  0  0  0  0  0
    8.4983    5.7115    4.7121 H   0  0  0  0  0  0  0  0  0  0  0  0
    6.8549    1.8134    5.5772 H   0  0  0  0  0  0  0  0  0  0  0  0
    8.9039    0.7555    4.6819 H   0  0  0  0  0  0  0  0  0  0  0  0
    4.9748    5.7733    5.7597 H   0  0  0  0  0  0  0  0  0  0  0  0
    6.3850    6.1664    4.8287 H   0  0  0  0  0  0  0  0  0  0  0  0
    7.7094    6.1909    7.0547 H   0  0  0  0  0  0  0  0  0  0  0  0
    6.1686    5.8776    7.8922 H   0  0  0  0  0  0  0  0  0  0  0  0
    7.7777    7.0380    9.2167 H   0  0  0  0  0  0  0  0  0  0  0  0
    8.3543    8.6142   10.9952 H   0  0  0  0  0  0  0  0  0  0  0  0
    6.3372   11.7832    8.8706 H   0  0  0  0  0  0  0  0  0  0  0  0
    5.7534   10.1875    7.0696 H   0  0  0  0  0  0  0  0  0  0  0  0
    8.6185   13.4852   10.7558 H   0  0  0  0  0  0  0  0  0  0  0  0
   10.3514   11.1005   10.1018 H   0  0  0  0  0  0  0  0  0  0  0  0
   10.7438   12.2428   11.4115 H   0  0  0  0  0  0  0  0  0  0  0  0
   10.4640   12.9702    8.4470 H   0  0  0  0  0  0  0  0  0  0  0  0
   11.9907   12.7965    9.3333 H   0  0  0  0  0  0  0  0  0  0  0  0
   10.8636   14.1002    9.7474 H   0  0  0  0  0  0  0  0  0  0  0  0
  1  2  1  0  0  0  0
  1 29  1  0  0  0  0
  1 30  1  0  0  0  0
  1 31  1  0  0  0  0
  2  3  1  0  0  0  0
  2 32  1  0  0  0  0
  2 33  1  0  0  0  0
  3  4  1  0  0  0  0
  3 34  1  0  0  0  0
  4  5  2  0  0  0  0
  4  6  2  0  0  0  0
  4  7  1  0  0  0  0
  7  8  2  0  0  0  0
  7 12  1  0  0  0  0
  8  9  1  0  0  0  0
  8 35  1  0  0  0  0
  9 10  2  0  0  0  0
  9 36  1  0  0  0  0
 10 11  1  0  0  0  0
 10 13  1  0  0  0  0
 11 12  2  0  0  0  0
 11 37  1  0  0  0  0
 12 38  1  0  0  0  0
 13 14  1  0  0  0  0
 14 15  1  0  0  0  0
 14 39  1  0  0  0  0
 14 40  1  0  0  0  0
 15 16  1  0  0  0  0
 15 41  1  0  0  0  0
 15 42  1  0  0  0  0
 16 17  1  0  0  0  0
 17 18  2  0  0  0  0
 17 22  1  0  0  0  0
 18 19  1  0  0  0  0
 18 43  1  0  0  0  0
 19 20  2  0  0  0  0
 19 44  1  0  0  0  0
 20 21  1  0  0  0  0
 20 23  1  0  0  0  0
 21 22  2  0  0  0  0
 21 45  1  0  0  0  0
 22 46  1  0  0  0  0
 23 24  2  0  0  0  0
 23 25  2  0  0  0  0
 23 26  1  0  0  0  0
 26 27  1  0  0  0  0
 26 47  1  0  0  0  0
 27 28  1  0  0  0  0
 27 48  1  0  0  0  0
 27 49  1  0  0  0  0
 28 50  1  0  0  0  0
 28 51  1  0  0  0  0
 28 52  1  0  0  0  0
M  END
