
 OpenBabel10072619583D

 56 55  0  0  1  0  0  0  0  0999 V2000
    2.3768   -0.5879   -0.3011 C   0  0  0  0  0  0  0  0  0  0  0  0
    3.4771    0.0637   -1.1174 C   0  0  0  0  0  0  0  0  0  0  0  0
    3.7978    1.3521   -0.5709 O   0  0  0  0  0  0  0  0  0  0  0  0
    4.8270    1.3795    0.3218 C   0  0  0  0  0  0  0  0  0  0  0  0
    5.4518    0.3986    0.7153 O   0  0  0  0  0  0  0  0  0  0  0  0
    5.1070    2.8113    0.7859 C   0  0  3  0  0  0  0  0  0  0  0  0
    4.0697    3.2711    1.8250 C   0  0  0  0  0  0  0  0  0  0  0  0
    3.9399    2.4280    3.1135 C   0  0  0  0  0  0  0  0  0  0  0  0
    5.1638    2.5183    4.0264 C   0  0  0  0  0  0  0  0  0  0  0  0
    2.7039    2.8914    3.8941 C   0  0  0  0  0  0  0  0  0  0  0  0
    6.4911    2.8898    1.2430 N   0  0  0  0  0  0  0  0  0  0  0  0
    7.1257    4.0690    1.4870 C   0  0  0  0  0  0  0  0  0  0  0  0
    6.6182    5.1702    1.3033 O   0  0  0  0  0  0  0  0  0  0  0  0
    8.3792    3.8860    1.9830 N   0  0  0  0  0  0  0  0  0  0  0  0
    9.2344    4.9920    2.4284 C   0  0  3  0  0  0  0  0  0  0  0  0
    8.9647    5.2663    3.9159 C   0  0  0  0  0  0  0  0  0  0  0  0
    9.6504    6.5102    4.5140 C   0  0  0  0  0  0  0  0  0  0  0  0
    9.2818    7.8003    3.7825 C   0  0  0  0  0  0  0  0  0  0  0  0
    9.2583    6.6391    5.9900 C   0  0  0  0  0  0  0  0  0  0  0  0
   10.6874    4.5744    2.1764 C   0  0  0  0  0  0  0  0  0  0  0  0
   11.0685    3.4065    2.1474 O   0  0  0  0  0  0  0  0  0  0  0  0
   11.4848    5.6667    2.0146 O   0  0  0  0  0  0  0  0  0  0  0  0
   12.8754    5.4093    1.7712 C   0  0  0  0  0  0  0  0  0  0  0  0
   13.6287    5.3323    3.0846 C   0  0  0  0  0  0  0  0  0  0  0  0
    2.1178   -1.5676   -0.7145 H   0  0  0  0  0  0  0  0  0  0  0  0
    1.4784    0.0389   -0.2938 H   0  0  0  0  0  0  0  0  0  0  0  0
    2.6871   -0.7144    0.7414 H   0  0  0  0  0  0  0  0  0  0  0  0
    3.1350    0.2232   -2.1456 H   0  0  0  0  0  0  0  0  0  0  0  0
    4.3602   -0.5828   -1.1740 H   0  0  0  0  0  0  0  0  0  0  0  0
    5.0429    3.4660   -0.0928 H   0  0  0  0  0  0  0  0  0  0  0  0
    3.0904    3.2764    1.3260 H   0  0  0  0  0  0  0  0  0  0  0  0
    4.2680    4.3133    2.1042 H   0  0  0  0  0  0  0  0  0  0  0  0
    3.7835    1.3761    2.8475 H   0  0  0  0  0  0  0  0  0  0  0  0
    5.4185    3.5607    4.2492 H   0  0  0  0  0  0  0  0  0  0  0  0
    6.0359    2.0357    3.5800 H   0  0  0  0  0  0  0  0  0  0  0  0
    4.9765    2.0054    4.9766 H   0  0  0  0  0  0  0  0  0  0  0  0
    2.8060    3.9358    4.2090 H   0  0  0  0  0  0  0  0  0  0  0  0
    2.5575    2.2791    4.7906 H   0  0  0  0  0  0  0  0  0  0  0  0
    1.8000    2.8073    3.2810 H   0  0  0  0  0  0  0  0  0  0  0  0
    6.9203    2.0268    1.5527 H   0  0  0  0  0  0  0  0  0  0  0  0
    8.7876    2.9609    1.9698 H   0  0  0  0  0  0  0  0  0  0  0  0
    8.9986    5.8583    1.8037 H   0  0  0  0  0  0  0  0  0  0  0  0
    9.2725    4.3877    4.5018 H   0  0  0  0  0  0  0  0  0  0  0  0
    7.8794    5.3624    4.0675 H   0  0  0  0  0  0  0  0  0  0  0  0
   10.7386    6.3833    4.4690 H   0  0  0  0  0  0  0  0  0  0  0  0
    8.1968    7.9460    3.7601 H   0  0  0  0  0  0  0  0  0  0  0  0
    9.6479    7.7982    2.7522 H   0  0  0  0  0  0  0  0  0  0  0  0
    9.7277    8.6673    4.2824 H   0  0  0  0  0  0  0  0  0  0  0  0
    8.1759    6.7734    6.0992 H   0  0  0  0  0  0  0  0  0  0  0  0
    9.7543    7.4996    6.4520 H   0  0  0  0  0  0  0  0  0  0  0  0
    9.5457    5.7427    6.5498 H   0  0  0  0  0  0  0  0  0  0  0  0
   13.2570    6.2472    1.1790 H   0  0  0  0  0  0  0  0  0  0  0  0
   13.0184    4.5023    1.1737 H   0  0  0  0  0  0  0  0  0  0  0  0
   13.4901    6.2525    3.6614 H   0  0  0  0  0  0  0  0  0  0  0  0
   14.6973    5.1855    2.9069 H   0  0  0  0  0  0  0  0  0  0  0  0
   13.2608    4.5088    3.7041 H   0  0  0  0  0  0  0  0  0  0  0  0
  1  2  1  0  0  0  0
  1 25  1  0  0  0  0
  1 26  1  0  0  0  0
  1 27  1  0  0  0  0
  2  3  1  0  0  0  0
  2 28  1  0  0  0  0
  2 29  1  0  0  0  0
  3  4  1  0  0  0  0
  4  5  2  0  0  0  0
  4  6  1  0  0  0  0
  6  7  1  0  0  0  0
  6 11  1  0  0  0  0
  6 30  1  0  0  0  0
  7  8  1  0  0  0  0
  7 31  1  0  0  0  0
  7 32  1  0  0  0  0
  8  9  1  0  0  0  0
  8 10  1  0  0  0  0
  8 33  1  0  0  0  0
  9 34  1  0  0  0  0
  9 35  1  0  0  0  0
  9 36  1  0  0  0  0
 10 37  1  0  0  0  0
 10 38  1  0  0  0  0
 10 39  1  0  0  0  0
 11 12  1  0  0  0  0
 11 40  1  0  0  0  0
 12 13  2  0  0  0  0
 12 14  1  0  0  0  0
 14 15  1  0  0  0  0
 14 41  1  0  0  0  0
 15 16  1  0  0  0  0
 15 20  1  0  0  0  0
 15 42  1  0  0  0  0
 16 17  1  0  0  0  0
 16 43  1  0  0  0  0
 16 44  1  0  0  0  0
 17 18  1  0  0  0  0
 17 19  1  0  0  0  0
 17 45  1  0  0  0  0
 18 46  1  0  0  0  0
 18 47  1  0  0  0  0
 18 48  1  0  0  0  0
 19 49  1  0  0  0  0
 19 50  1  0  0  0  0
 19 51  1  0  0  0  0
 20 21  2  0  0  0  0
 20 22  1  0  0  0  0
 22 23  1  0  0  0  0
 23 24  1  0  0  0  0
 23 52  1  0  0  0  0
 23 53  1  0  0  0  0
 24 54  1  0  0  0  0
 24 55  1  0  0  0  0
 24 56  1  0  0  0  0
M  END
