
 OpenBabel10072619473D

 49 52  0  0  1  0  0  0  0  0999 V2000
   -5.1112   -5.2611    4.3302 C   0  0  0  0  0  0  0  0  0  0  0  0
   -5.4742   -4.2165    3.3192 C   0  0  0  0  0  0  0  0  0  0  0  0
   -6.3555   -3.1850    3.6571 C   0  0  0  0  0  0  0  0  0  0  0  0
   -6.7230   -2.2221    2.7130 C   0  0  0  0  0  0  0  0  0  0  0  0
   -6.2157   -2.2758    1.4171 C   0  0  0  0  0  0  0  0  0  0  0  0
   -5.3211   -3.2991    1.0776 C   0  0  0  0  0  0  0  0  0  0  0  0
   -4.9481   -4.2617    2.0235 C   0  0  0  0  0  0  0  0  0  0  0  0
   -6.6193   -1.3924    0.4022 N   0  0  0  0  0  0  0  0  0  0  0  0
   -7.3482   -0.2312    0.5389 C   0  0  0  0  0  0  0  0  0  0  0  0
   -7.5619    0.3725    1.5811 O   0  0  0  0  0  0  0  0  0  0  0  0
   -7.8483    0.1736   -0.6697 N   0  0  0  0  0  0  0  0  0  0  0  0
   -8.4124    1.4773   -0.8762 C   0  0  3  0  0  0  0  0  0  0  0  0
   -9.6600    2.0163   -0.0329 C   0  0  0  0  0  0  0  0  0  0  0  0
  -10.6191    1.2889    0.2473 O   0  0  0  0  0  0  0  0  0  0  0  0
   -9.7636    3.3836    0.1956 N   0  0  0  0  0  0  0  0  0  0  0  0
   -8.6488    4.1380    0.6058 C   0  0  0  0  0  0  0  0  0  0  0  0
   -8.3360    5.7429   -0.0920 C   0  0  0  0  0  0  0  0  0  0  0  0
   -6.4458    6.4629   -0.0229 C   0  0  0  0  0  0  0  0  0  0  0  0
   -5.1503    5.5176    0.7522 C   0  0  0  0  0  0  0  0  0  0  0  0
   -5.5622    3.9660    1.3805 C   0  0  0  0  0  0  0  0  0  0  0  0
   -7.1902    3.2831    1.1291 C   0  0  0  0  0  0  0  0  0  0  0  0
   -6.9596    3.1953   -0.2593 C   0  0  0  0  0  0  0  0  0  0  0  0
   -7.3627    2.4581   -1.2246 N   0  0  0  0  0  0  0  0  0  0  0  0
   -6.8080    4.6183   -0.2821 C   0  0  0  0  0  0  0  0  0  0  0  0
   -7.2303    5.5474    1.4557 C   0  0  0  0  0  0  0  0  0  0  0  0
   -7.8634    7.2337    1.3785 C   0  0  0  0  0  0  0  0  0  0  0  0
   -8.0734    7.9712   -0.2218 C   0  0  0  0  0  0  0  0  0  0  0  0
   -7.6919    7.1250   -1.7536 C   0  0  0  0  0  0  0  0  0  0  0  0
   -7.0715    5.4724   -1.8280 C   0  0  0  0  0  0  0  0  0  0  0  0
   -5.7213   -5.1688    5.2350 H   0  0  0  0  0  0  0  0  0  0  0  0
   -4.0614   -5.1597    4.6163 H   0  0  0  0  0  0  0  0  0  0  0  0
   -5.2843   -6.2620    3.9232 H   0  0  0  0  0  0  0  0  0  0  0  0
   -6.7842   -3.1296    4.6558 H   0  0  0  0  0  0  0  0  0  0  0  0
   -7.4385   -1.4602    3.0077 H   0  0  0  0  0  0  0  0  0  0  0  0
   -4.9055   -3.3704    0.0752 H   0  0  0  0  0  0  0  0  0  0  0  0
   -4.2577   -5.0542    1.7395 H   0  0  0  0  0  0  0  0  0  0  0  0
   -6.2676   -1.5840   -0.5202 H   0  0  0  0  0  0  0  0  0  0  0  0
   -7.4746   -0.2458   -1.5004 H   0  0  0  0  0  0  0  0  0  0  0  0
   -8.9213    1.3407   -1.8444 H   0  0  0  0  0  0  0  0  0  0  0  0
  -10.6719    3.7128    0.4958 H   0  0  0  0  0  0  0  0  0  0  0  0
   -9.2533    6.1660   -0.5396 H   0  0  0  0  0  0  0  0  0  0  0  0
   -6.0287    7.4162   -0.3895 H   0  0  0  0  0  0  0  0  0  0  0  0
   -4.1480    5.9199    0.8274 H   0  0  0  0  0  0  0  0  0  0  0  0
   -4.8395    3.3891    1.9567 H   0  0  0  0  0  0  0  0  0  0  0  0
   -7.2458    5.1124    2.4678 H   0  0  0  0  0  0  0  0  0  0  0  0
   -8.1435    7.7706    2.2799 H   0  0  0  0  0  0  0  0  0  0  0  0
   -8.4449    8.9924   -0.2865 H   0  0  0  0  0  0  0  0  0  0  0  0
   -7.8673    7.6427   -2.6971 H   0  0  0  0  0  0  0  0  0  0  0  0
   -6.9699    4.9361   -2.7642 H   0  0  0  0  0  0  0  0  0  0  0  0
  1  2  1  0  0  0  0
  1 30  1  0  0  0  0
  1 31  1  0  0  0  0
  1 32  1  0  0  0  0
  2  3  2  0  0  0  0
  2  7  1  0  0  0  0
  3  4  1  0  0  0  0
  3 33  1  0  0  0  0
  4  5  2  0  0  0  0
  4 34  1  0  0  0  0
  5  6  1  0  0  0  0
  5  8  1  0  0  0  0
  6  7  2  0  0  0  0
  6 35  1  0  0  0  0
  7 36  1  0  0  0  0
  8  9  1  0  0  0  0
  8 37  1  0  0  0  0
  9 10  2  0  0  0  0
  9 11  1  0  0  0  0
 11 12  1  0  0  0  0
 11 38  1  0  0  0  0
 12 13  1  0  0  0  0
 12 23  1  0  0  0  0
 12 39  1  0  0  0  0
 13 14  2  0  0  0  0
 13 15  1  0  0  0  0
 15 16  1  0  0  0  0
 15 40  1  0  0  0  0
 16 17  2  0  0  0  0
 16 21  1  0  0  0  0
 17 18  1  0  0  0  0
 17 41  1  0  0  0  0
 18 19  2  0  0  0  0
 18 42  1  0  0  0  0
 19 20  1  0  0  0  0
 19 43  1  0  0  0  0
 20 21  2  0  0  0  0
 20 44  1  0  0  0  0
 21 22  1  0  0  0  0
 22 23  2  0  0  0  0
 22 24  1  0  0  0  0
 24 25  2  0  0  0  0
 24 29  1  0  0  0  0
 25 26  1  0  0  0  0
 25 45  1  0  0  0  0
 26 27  2  0  0  0  0
 26 46  1  0  0  0  0
 27 28  1  0  0  0  0
 27 47  1  0  0  0  0
 28 29  2  0  0  0  0
 28 48  1  0  0  0  0
 29 49  1  0  0  0  0
M  END
