
 OpenBabel10072620113D

 68 72  0  0  0  0  0  0  0  0999 V2000
   -1.0361   -0.6176    6.5691 C   0  0  0  0  0  0  0  0  0  0  0  0
    0.3250   -0.2275    7.1278 C   0  0  0  0  0  0  0  0  0  0  0  0
    0.8234    1.0734    6.5507 C   0  0  0  0  0  0  0  0  0  0  0  0
    0.5132    2.2932    7.1658 C   0  0  0  0  0  0  0  0  0  0  0  0
    0.9531    3.4997    6.6116 C   0  0  0  0  0  0  0  0  0  0  0  0
    1.6852    3.5022    5.4216 C   0  0  0  0  0  0  0  0  0  0  0  0
    2.0048    2.2873    4.8130 C   0  0  0  0  0  0  0  0  0  0  0  0
    1.5762    1.0803    5.3704 C   0  0  0  0  0  0  0  0  0  0  0  0
    2.1418    4.7239    4.8157 N   0  0  0  0  0  0  0  0  0  0  0  0
    1.2083    5.8657    4.7900 C   0  0  0  0  0  0  0  0  0  0  0  0
    3.8017    5.0968    4.9461 S   0  0  0  0  0  0  0  0  0  0  0  0
    4.5962    3.9015    4.7427 O   0  0  0  0  0  0  0  0  0  0  0  0
    4.0592    6.2851    4.1589 O   0  0  0  0  0  0  0  0  0  0  0  0
    3.9987    5.5609    6.6590 C   0  0  0  0  0  0  0  0  0  0  0  0
    3.9468    6.9092    7.0285 C   0  0  0  0  0  0  0  0  0  0  0  0
    4.1926    7.2587    8.3623 C   0  0  0  0  0  0  0  0  0  0  0  0
    4.4869    6.2727    9.3226 C   0  0  0  0  0  0  0  0  0  0  0  0
    4.5618    4.9344    8.9272 C   0  0  0  0  0  0  0  0  0  0  0  0
    4.3180    4.5757    7.5996 C   0  0  0  0  0  0  0  0  0  0  0  0
    4.7965    6.6432   10.6366 N   0  0  0  0  0  0  0  0  0  0  0  0
    4.7466    7.9571   11.0223 C   0  0  0  0  0  0  0  0  0  0  0  0
    4.4811    8.9915   10.2073 C   0  0  0  0  0  0  0  0  0  0  0  0
    4.1374    8.6852    8.7923 C   0  0  0  0  0  0  0  0  0  0  0  0
    3.8102    9.5552    7.9916 O   0  0  0  0  0  0  0  0  0  0  0  0
    4.4405   10.3403   10.8206 C   0  0  0  0  0  0  0  0  0  0  0  0
    3.7681   10.4957   11.8430 O   0  0  0  0  0  0  0  0  0  0  0  0
    5.2054   11.3600   10.2746 N   0  0  0  0  0  0  0  0  0  0  0  0
    5.3141   12.6058   11.0465 C   0  0  0  0  0  0  0  0  0  0  0  0
    5.5682   13.8470   10.1713 C   0  0  0  0  0  0  0  0  0  0  0  0
    6.7071   13.6199    9.2560 N   0  0  0  0  0  0  0  0  0  0  0  0
    6.5060   12.4186    8.4064 C   0  0  0  0  0  0  0  0  0  0  0  0
    6.2830   11.1724    9.2888 C   0  0  0  0  0  0  0  0  0  0  0  0
    7.2470   14.7301    8.5855 C   0  0  0  0  0  0  0  0  0  0  0  0
    8.4919   14.6166    7.9423 C   0  0  0  0  0  0  0  0  0  0  0  0
    9.0851   15.6966    7.2789 C   0  0  0  0  0  0  0  0  0  0  0  0
    8.4493   16.9317    7.2556 C   0  0  0  0  0  0  0  0  0  0  0  0
    7.2261   17.0824    7.8986 C   0  0  0  0  0  0  0  0  0  0  0  0
    6.6363   15.9942    8.5561 C   0  0  0  0  0  0  0  0  0  0  0  0
   -1.3707   -1.5592    7.0169 H   0  0  0  0  0  0  0  0  0  0  0  0
   -0.9959   -0.7551    5.4828 H   0  0  0  0  0  0  0  0  0  0  0  0
   -1.7910    0.1469    6.7825 H   0  0  0  0  0  0  0  0  0  0  0  0
    1.0495   -1.0237    6.9171 H   0  0  0  0  0  0  0  0  0  0  0  0
    0.2688   -0.1480    8.2202 H   0  0  0  0  0  0  0  0  0  0  0  0
   -0.0789    2.3119    8.0789 H   0  0  0  0  0  0  0  0  0  0  0  0
    0.6989    4.4276    7.1134 H   0  0  0  0  0  0  0  0  0  0  0  0
    2.5786    2.2738    3.8890 H   0  0  0  0  0  0  0  0  0  0  0  0
    1.8276    0.1466    4.8711 H   0  0  0  0  0  0  0  0  0  0  0  0
    0.2067    5.5184    4.5099 H   0  0  0  0  0  0  0  0  0  0  0  0
    1.5084    6.5943    4.0307 H   0  0  0  0  0  0  0  0  0  0  0  0
    1.1525    6.3633    5.7629 H   0  0  0  0  0  0  0  0  0  0  0  0
    3.7395    7.6808    6.2894 H   0  0  0  0  0  0  0  0  0  0  0  0
    4.8298    4.1638    9.6457 H   0  0  0  0  0  0  0  0  0  0  0  0
    4.3941    3.5301    7.3047 H   0  0  0  0  0  0  0  0  0  0  0  0
    4.8087    5.9292   11.3578 H   0  0  0  0  0  0  0  0  0  0  0  0
    4.9481    8.1040   12.0823 H   0  0  0  0  0  0  0  0  0  0  0  0
    6.1494   12.4691   11.7463 H   0  0  0  0  0  0  0  0  0  0  0  0
    4.4105   12.7693   11.6445 H   0  0  0  0  0  0  0  0  0  0  0  0
    5.7742   14.6909   10.8417 H   0  0  0  0  0  0  0  0  0  0  0  0
    4.6632   14.0710    9.5917 H   0  0  0  0  0  0  0  0  0  0  0  0
    7.3665   12.2180    7.7594 H   0  0  0  0  0  0  0  0  0  0  0  0
    5.6338   12.5750    7.7573 H   0  0  0  0  0  0  0  0  0  0  0  0
    7.1942   10.9536    9.8610 H   0  0  0  0  0  0  0  0  0  0  0  0
    6.1026   10.3111    8.6467 H   0  0  0  0  0  0  0  0  0  0  0  0
    9.0358   13.6766    7.9777 H   0  0  0  0  0  0  0  0  0  0  0  0
   10.0483   15.5699    6.7926 H   0  0  0  0  0  0  0  0  0  0  0  0
    8.9066   17.7741    6.7446 H   0  0  0  0  0  0  0  0  0  0  0  0
    6.7226   18.0457    7.8896 H   0  0  0  0  0  0  0  0  0  0  0  0
    5.6757   16.1648    9.0318 H   0  0  0  0  0  0  0  0  0  0  0  0
  1  2  1  0  0  0  0
  1 39  1  0  0  0  0
  1 40  1  0  0  0  0
  1 41  1  0  0  0  0
  2  3  1  0  0  0  0
  2 42  1  0  0  0  0
  2 43  1  0  0  0  0
  3  4  2  0  0  0  0
  3  8  1  0  0  0  0
  4  5  1  0  0  0  0
  4 44  1  0  0  0  0
  5  6  2  0  0  0  0
  5 45  1  0  0  0  0
  6  7  1  0  0  0  0
  6  9  1  0  0  0  0
  7  8  2  0  0  0  0
  7 46  1  0  0  0  0
  8 47  1  0  0  0  0
  9 10  1  0  0  0  0
  9 11  1  0  0  0  0
 10 48  1  0  0  0  0
 10 49  1  0  0  0  0
 10 50  1  0  0  0  0
 11 12  2  0  0  0  0
 11 13  2  0  0  0  0
 11 14  1  0  0  0  0
 14 15  2  0  0  0  0
 14 19  1  0  0  0  0
 15 16  1  0  0  0  0
 15 51  1  0  0  0  0
 16 17  2  0  0  0  0
 16 23  1  0  0  0  0
 17 18  1  0  0  0  0
 17 20  1  0  0  0  0
 18 19  2  0  0  0  0
 18 52  1  0  0  0  0
 19 53  1  0  0  0  0
 20 21  1  0  0  0  0
 20 54  1  0  0  0  0
 21 22  2  0  0  0  0
 21 55  1  0  0  0  0
 22 23  1  0  0  0  0
 22 25  1  0  0  0  0
 23 24  2  0  0  0  0
 25 26  2  0  0  0  0
 25 27  1  0  0  0  0
 27 28  1  0  0  0  0
 27 32  1  0  0  0  0
 28 29  1  0  0  0  0
 28 56  1  0  0  0  0
 28 57  1  0  0  0  0
 29 30  1  0  0  0  0
 29 58  1  0  0  0  0
 29 59  1  0  0  0  0
 30 31  1  0  0  0  0
 30 33  1  0  0  0  0
 31 32  1  0  0  0  0
 31 60  1  0  0  0  0
 31 61  1  0  0  0  0
 32 62  1  0  0  0  0
 32 63  1  0  0  0  0
 33 34  2  0  0  0  0
 33 38  1  0  0  0  0
 34 35  1  0  0  0  0
 34 64  1  0  0  0  0
 35 36  2  0  0  0  0
 35 65  1  0  0  0  0
 36 37  1  0  0  0  0
 36 66  1  0  0  0  0
 37 38  2  0  0  0  0
 37 67  1  0  0  0  0
 38 68  1  0  0  0  0
M  END
