
 OpenBabel10072616443D

113116  0  0  0  0  0  0  0  0999 V2000
    0.9845   -1.6739    2.4743 C   0  0  0  0  0  0  0  0  0  0  0  0
    2.4994   -1.7904    2.5120 C   0  0  0  0  0  0  0  0  0  0  0  0
    3.0215   -2.4749    1.2508 C   0  0  0  0  0  0  0  0  0  0  0  0
    4.5389   -2.6006    1.2611 C   0  0  0  0  0  0  0  0  0  0  0  0
    5.0625   -3.2725   -0.0104 C   0  0  0  0  0  0  0  0  0  0  0  0
    6.5832   -3.3474    0.0451 C   0  0  0  0  0  0  0  0  0  0  0  0
    7.1033   -3.9163   -1.1552 O   0  0  0  0  0  0  0  0  0  0  0  0
    8.4567   -4.1825   -1.1712 C   0  0  0  0  0  0  0  0  0  0  0  0
    9.3156   -3.7199   -0.1699 C   0  0  0  0  0  0  0  0  0  0  0  0
   10.6572   -4.1044   -0.1130 C   0  0  0  0  0  0  0  0  0  0  0  0
   11.1653   -4.9202   -1.1140 C   0  0  0  0  0  0  0  0  0  0  0  0
   10.3302   -5.3993   -2.1355 C   0  0  0  0  0  0  0  0  0  0  0  0
    8.9848   -4.9709   -2.2113 C   0  0  0  0  0  0  0  0  0  0  0  0
    8.2699   -5.4003   -3.3114 O   0  0  0  0  0  0  0  0  0  0  0  0
    7.2568   -4.4943   -3.7637 C   0  0  0  0  0  0  0  0  0  0  0  0
    7.0874   -4.6105   -5.2765 C   0  0  0  0  0  0  0  0  0  0  0  0
    5.9851   -3.6690   -5.7768 C   0  0  0  0  0  0  0  0  0  0  0  0
    5.7977   -3.7464   -7.2929 C   0  0  0  0  0  0  0  0  0  0  0  0
    4.6927   -2.8039   -7.7754 C   0  0  0  0  0  0  0  0  0  0  0  0
    4.4997   -2.8817   -9.2815 C   0  0  0  0  0  0  0  0  0  0  0  0
   10.7851   -6.2897   -3.0844 O   0  0  0  0  0  0  0  0  0  0  0  0
   11.7853   -7.1998   -2.6055 C   0  0  0  0  0  0  0  0  0  0  0  0
   11.6811   -8.5183   -3.3615 C   0  0  0  0  0  0  0  0  0  0  0  0
   12.7337   -9.5124   -2.8646 C   0  0  0  0  0  0  0  0  0  0  0  0
   12.6194  -10.8521   -3.5878 C   0  0  0  0  0  0  0  0  0  0  0  0
   13.6709  -11.8530   -3.1121 C   0  0  0  0  0  0  0  0  0  0  0  0
   13.5504  -13.1777   -3.8481 C   0  0  0  0  0  0  0  0  0  0  0  0
   11.5107   -3.6857    1.0055 C   0  0  0  0  0  0  0  0  0  0  0  0
   11.0295   -3.6110    2.2561 C   0  0  0  0  0  0  0  0  0  0  0  0
   11.7926   -3.1971    3.4310 C   0  0  0  0  0  0  0  0  0  0  0  0
   11.1333   -2.4731    4.4287 C   0  0  0  0  0  0  0  0  0  0  0  0
   11.8099   -2.0824    5.5832 C   0  0  0  0  0  0  0  0  0  0  0  0
   13.1523   -2.4325    5.7681 C   0  0  0  0  0  0  0  0  0  0  0  0
   13.8070   -3.1590    4.7677 C   0  0  0  0  0  0  0  0  0  0  0  0
   13.1263   -3.5614    3.6175 C   0  0  0  0  0  0  0  0  0  0  0  0
   13.9131   -2.0453    6.9587 C   0  0  0  0  0  0  0  0  0  0  0  0
   13.3644   -1.9151    8.1749 C   0  0  0  0  0  0  0  0  0  0  0  0
   14.1047   -1.4833    9.3615 C   0  0  0  0  0  0  0  0  0  0  0  0
   13.4264   -0.6953   10.2933 C   0  0  0  0  0  0  0  0  0  0  0  0
   14.0710   -0.2447   11.4434 C   0  0  0  0  0  0  0  0  0  0  0  0
   15.4032   -0.5901   11.6938 C   0  0  0  0  0  0  0  0  0  0  0  0
   16.0870   -1.3670   10.7508 C   0  0  0  0  0  0  0  0  0  0  0  0
   15.4361   -1.8323    9.6032 C   0  0  0  0  0  0  0  0  0  0  0  0
   16.1304   -0.0782   12.8601 C   0  0  0  0  0  0  0  0  0  0  0  0
   15.5521    0.2208   14.0372 C   0  0  0  0  0  0  0  0  0  0  0  0
   16.2550    0.8420   15.1651 C   0  0  0  0  0  0  0  0  0  0  0  0
   17.3540    1.6929   14.9787 C   0  0  0  0  0  0  0  0  0  0  0  0
   17.9637    2.3166   16.0675 C   0  0  0  0  0  0  0  0  0  0  0  0
   17.4659    2.1033   17.3528 C   0  0  0  0  0  0  0  0  0  0  0  0
   16.3672    1.2666   17.5562 C   0  0  0  0  0  0  0  0  0  0  0  0
   15.7543    0.6545   16.4600 C   0  0  0  0  0  0  0  0  0  0  0  0
   18.0755    2.7897   18.5071 C   0  0  0  0  0  0  0  0  0  0  0  0
   19.0452    3.5292   18.3889 O   0  0  0  0  0  0  0  0  0  0  0  0
    0.6124   -1.1835    3.3786 H   0  0  0  0  0  0  0  0  0  0  0  0
    0.5194   -2.6623    2.4072 H   0  0  0  0  0  0  0  0  0  0  0  0
    0.6602   -1.0854    1.6103 H   0  0  0  0  0  0  0  0  0  0  0  0
    2.7968   -2.3574    3.4010 H   0  0  0  0  0  0  0  0  0  0  0  0
    2.9365   -0.7903    2.6069 H   0  0  0  0  0  0  0  0  0  0  0  0
    2.7131   -1.9009    0.3709 H   0  0  0  0  0  0  0  0  0  0  0  0
    2.5731   -3.4700    1.1620 H   0  0  0  0  0  0  0  0  0  0  0  0
    4.8574   -3.1780    2.1364 H   0  0  0  0  0  0  0  0  0  0  0  0
    4.9893   -1.6060    1.3579 H   0  0  0  0  0  0  0  0  0  0  0  0
    4.7449   -2.7160   -0.9009 H   0  0  0  0  0  0  0  0  0  0  0  0
    4.6478   -4.2828   -0.1123 H   0  0  0  0  0  0  0  0  0  0  0  0
    6.8667   -3.9690    0.9037 H   0  0  0  0  0  0  0  0  0  0  0  0
    6.9748   -2.3303    0.1621 H   0  0  0  0  0  0  0  0  0  0  0  0
    8.9571   -3.0500    0.6029 H   0  0  0  0  0  0  0  0  0  0  0  0
   12.2116   -5.2082   -1.0698 H   0  0  0  0  0  0  0  0  0  0  0  0
    7.5234   -3.4548   -3.5390 H   0  0  0  0  0  0  0  0  0  0  0  0
    6.3099   -4.7587   -3.2791 H   0  0  0  0  0  0  0  0  0  0  0  0
    6.8593   -5.6504   -5.5338 H   0  0  0  0  0  0  0  0  0  0  0  0
    8.0420   -4.3741   -5.7609 H   0  0  0  0  0  0  0  0  0  0  0  0
    6.2306   -2.6385   -5.4931 H   0  0  0  0  0  0  0  0  0  0  0  0
    5.0409   -3.9163   -5.2774 H   0  0  0  0  0  0  0  0  0  0  0  0
    5.5534   -4.7756   -7.5775 H   0  0  0  0  0  0  0  0  0  0  0  0
    6.7407   -3.4893   -7.7875 H   0  0  0  0  0  0  0  0  0  0  0  0
    4.9364   -1.7724   -7.4989 H   0  0  0  0  0  0  0  0  0  0  0  0
    3.7478   -3.0537   -7.2809 H   0  0  0  0  0  0  0  0  0  0  0  0
    5.4148   -2.6011   -9.8108 H   0  0  0  0  0  0  0  0  0  0  0  0
    3.7046   -2.2009   -9.5999 H   0  0  0  0  0  0  0  0  0  0  0  0
    4.2203   -3.8930   -9.5907 H   0  0  0  0  0  0  0  0  0  0  0  0
   11.6557   -7.4199   -1.5377 H   0  0  0  0  0  0  0  0  0  0  0  0
   12.7737   -6.7532   -2.7653 H   0  0  0  0  0  0  0  0  0  0  0  0
   11.7883   -8.3401   -4.4377 H   0  0  0  0  0  0  0  0  0  0  0  0
   10.6742   -8.9290   -3.2192 H   0  0  0  0  0  0  0  0  0  0  0  0
   12.6102   -9.6651   -1.7857 H   0  0  0  0  0  0  0  0  0  0  0  0
   13.7354   -9.0916   -3.0123 H   0  0  0  0  0  0  0  0  0  0  0  0
   12.7273  -10.6902   -4.6657 H   0  0  0  0  0  0  0  0  0  0  0  0
   11.6186  -11.2658   -3.4220 H   0  0  0  0  0  0  0  0  0  0  0  0
   13.5610  -12.0281   -2.0365 H   0  0  0  0  0  0  0  0  0  0  0  0
   14.6743  -11.4442   -3.2712 H   0  0  0  0  0  0  0  0  0  0  0  0
   12.5696  -13.6326   -3.6816 H   0  0  0  0  0  0  0  0  0  0  0  0
   14.3122  -13.8800   -3.4978 H   0  0  0  0  0  0  0  0  0  0  0  0
   13.6860  -13.0426   -4.9252 H   0  0  0  0  0  0  0  0  0  0  0  0
   12.5452   -3.4597    0.7731 H   0  0  0  0  0  0  0  0  0  0  0  0
    9.9962   -3.8737    2.4620 H   0  0  0  0  0  0  0  0  0  0  0  0
   10.0889   -2.1924    4.3135 H   0  0  0  0  0  0  0  0  0  0  0  0
   11.2786   -1.4957    6.3266 H   0  0  0  0  0  0  0  0  0  0  0  0
   14.8511   -3.4405    4.8788 H   0  0  0  0  0  0  0  0  0  0  0  0
   13.6436   -4.1722    2.8826 H   0  0  0  0  0  0  0  0  0  0  0  0
   14.9746   -1.8776    6.8019 H   0  0  0  0  0  0  0  0  0  0  0  0
   12.3040   -2.0911    8.3282 H   0  0  0  0  0  0  0  0  0  0  0  0
   12.3948   -0.3995   10.1184 H   0  0  0  0  0  0  0  0  0  0  0  0
   13.5227    0.4024   12.1205 H   0  0  0  0  0  0  0  0  0  0  0  0
   17.1335   -1.6232   10.8945 H   0  0  0  0  0  0  0  0  0  0  0  0
   15.9818   -2.4664    8.9087 H   0  0  0  0  0  0  0  0  0  0  0  0
   17.1959    0.0635   12.7095 H   0  0  0  0  0  0  0  0  0  0  0  0
   14.4979    0.0175   14.1986 H   0  0  0  0  0  0  0  0  0  0  0  0
   17.7355    1.9028   13.9832 H   0  0  0  0  0  0  0  0  0  0  0  0
   18.8128    2.9759   15.9043 H   0  0  0  0  0  0  0  0  0  0  0  0
   15.9736    1.0887   18.5521 H   0  0  0  0  0  0  0  0  0  0  0  0
   14.8756    0.0352   16.6252 H   0  0  0  0  0  0  0  0  0  0  0  0
   17.6072    2.6141   19.4886 H   0  0  0  0  0  0  0  0  0  0  0  0
  1  2  1  0  0  0  0
  1 54  1  0  0  0  0
  1 55  1  0  0  0  0
  1 56  1  0  0  0  0
  2  3  1  0  0  0  0
  2 57  1  0  0  0  0
  2 58  1  0  0  0  0
  3  4  1  0  0  0  0
  3 59  1  0  0  0  0
  3 60  1  0  0  0  0
  4  5  1  0  0  0  0
  4 61  1  0  0  0  0
  4 62  1  0  0  0  0
  5  6  1  0  0  0  0
  5 63  1  0  0  0  0
  5 64  1  0  0  0  0
  6  7  1  0  0  0  0
  6 65  1  0  0  0  0
  6 66  1  0  0  0  0
  7  8  1  0  0  0  0
  8  9  2  0  0  0  0
  8 13  1  0  0  0  0
  9 10  1  0  0  0  0
  9 67  1  0  0  0  0
 10 11  2  0  0  0  0
 10 28  1  0  0  0  0
 11 12  1  0  0  0  0
 11 68  1  0  0  0  0
 12 13  2  0  0  0  0
 12 21  1  0  0  0  0
 13 14  1  0  0  0  0
 14 15  1  0  0  0  0
 15 16  1  0  0  0  0
 15 69  1  0  0  0  0
 15 70  1  0  0  0  0
 16 17  1  0  0  0  0
 16 71  1  0  0  0  0
 16 72  1  0  0  0  0
 17 18  1  0  0  0  0
 17 73  1  0  0  0  0
 17 74  1  0  0  0  0
 18 19  1  0  0  0  0
 18 75  1  0  0  0  0
 18 76  1  0  0  0  0
 19 20  1  0  0  0  0
 19 77  1  0  0  0  0
 19 78  1  0  0  0  0
 20 79  1  0  0  0  0
 20 80  1  0  0  0  0
 20 81  1  0  0  0  0
 21 22  1  0  0  0  0
 22 23  1  0  0  0  0
 22 82  1  0  0  0  0
 22 83  1  0  0  0  0
 23 24  1  0  0  0  0
 23 84  1  0  0  0  0
 23 85  1  0  0  0  0
 24 25  1  0  0  0  0
 24 86  1  0  0  0  0
 24 87  1  0  0  0  0
 25 26  1  0  0  0  0
 25 88  1  0  0  0  0
 25 89  1  0  0  0  0
 26 27  1  0  0  0  0
 26 90  1  0  0  0  0
 26 91  1  0  0  0  0
 27 92  1  0  0  0  0
 27 93  1  0  0  0  0
 27 94  1  0  0  0  0
 28 29  2  0  0  0  0
 28 95  1  0  0  0  0
 29 30  1  0  0  0  0
 29 96  1  0  0  0  0
 30 31  2  0  0  0  0
 30 35  1  0  0  0  0
 31 32  1  0  0  0  0
 31 97  1  0  0  0  0
 32 33  2  0  0  0  0
 32 98  1  0  0  0  0
 33 34  1  0  0  0  0
 33 36  1  0  0  0  0
 34 35  2  0  0  0  0
 34 99  1  0  0  0  0
 35100  1  0  0  0  0
 36 37  2  0  0  0  0
 36101  1  0  0  0  0
 37 38  1  0  0  0  0
 37102  1  0  0  0  0
 38 39  2  0  0  0  0
 38 43  1  0  0  0  0
 39 40  1  0  0  0  0
 39103  1  0  0  0  0
 40 41  2  0  0  0  0
 40104  1  0  0  0  0
 41 42  1  0  0  0  0
 41 44  1  0  0  0  0
 42 43  2  0  0  0  0
 42105  1  0  0  0  0
 43106  1  0  0  0  0
 44 45  2  0  0  0  0
 44107  1  0  0  0  0
 45 46  1  0  0  0  0
 45108  1  0  0  0  0
 46 47  2  0  0  0  0
 46 51  1  0  0  0  0
 47 48  1  0  0  0  0
 47109  1  0  0  0  0
 48 49  2  0  0  0  0
 48110  1  0  0  0  0
 49 50  1  0  0  0  0
 49 52  1  0  0  0  0
 50 51  2  0  0  0  0
 50111  1  0  0  0  0
 51112  1  0  0  0  0
 52 53  2  0  0  0  0
 52113  1  0  0  0  0
M  END
