
 OpenBabel10072620233D

 42 43  0  0  0  0  0  0  0  0999 V2000
    1.2144   -0.9607   -0.1366 C   0  0  0  0  0  0  0  0  0  0  0  0
    2.6872   -0.7297   -0.0948 C   0  0  0  0  0  0  0  0  0  0  0  0
    3.4513   -1.1153   -0.9762 O   0  0  0  0  0  0  0  0  0  0  0  0
    3.2161   -0.0357    1.0176 N   0  0  0  0  0  0  0  0  0  0  0  0
    4.5650    0.3048    1.0859 C   0  0  0  0  0  0  0  0  0  0  0  0
    4.7930    1.0419    2.2145 C   0  0  0  0  0  0  0  0  0  0  0  0
    3.5840    1.1003    2.9459 C   0  0  0  0  0  0  0  0  0  0  0  0
    3.2375    1.6879    4.1828 C   0  0  0  0  0  0  0  0  0  0  0  0
    1.9289    1.6038    4.6554 C   0  0  0  0  0  0  0  0  0  0  0  0
    0.9647    0.9395    3.9149 C   0  0  0  0  0  0  0  0  0  0  0  0
    1.2816    0.3428    2.6894 C   0  0  0  0  0  0  0  0  0  0  0  0
    2.6009    0.4299    2.1938 C   0  0  0  0  0  0  0  0  0  0  0  0
    6.0409    1.6304    2.5554 C   0  0  0  0  0  0  0  0  0  0  0  0
    6.5102    2.7834    2.0363 C   0  0  0  0  0  0  0  0  0  0  0  0
    7.8200    3.3272    2.4586 C   0  0  0  0  0  0  0  0  0  0  0  0
    8.2638    4.4082    2.1060 O   0  0  0  0  0  0  0  0  0  0  0  0
    8.4835    2.4661    3.2781 O   0  0  0  0  0  0  0  0  0  0  0  0
    9.7673    2.9326    3.7045 C   0  0  0  0  0  0  0  0  0  0  0  0
    5.6680    3.7655    0.8619 P   0  0  0  0  0  0  0  0  0  0  0  0
    4.3259    3.4099    0.2693 O   0  0  0  0  0  0  0  0  0  0  0  0
    5.5917    5.2510    1.5146 O   0  0  0  0  0  0  0  0  0  0  0  0
    5.1577    6.3065    0.6810 C   0  0  0  0  0  0  0  0  0  0  0  0
    6.7279    4.0253   -0.3443 O   0  0  0  0  0  0  0  0  0  0  0  0
    6.8285    3.0091   -1.3230 C   0  0  0  0  0  0  0  0  0  0  0  0
    0.9626   -1.4207   -1.0982 H   0  0  0  0  0  0  0  0  0  0  0  0
    0.6693   -0.0150   -0.0800 H   0  0  0  0  0  0  0  0  0  0  0  0
    0.9146   -1.6601    0.6474 H   0  0  0  0  0  0  0  0  0  0  0  0
    5.2243    0.0181    0.2754 H   0  0  0  0  0  0  0  0  0  0  0  0
    3.9876    2.2102    4.7706 H   0  0  0  0  0  0  0  0  0  0  0  0
    1.6655    2.0656    5.6032 H   0  0  0  0  0  0  0  0  0  0  0  0
   -0.0556    0.8826    4.2887 H   0  0  0  0  0  0  0  0  0  0  0  0
    0.4854   -0.1680    2.1624 H   0  0  0  0  0  0  0  0  0  0  0  0
    6.6086    1.0875    3.3069 H   0  0  0  0  0  0  0  0  0  0  0  0
   10.2404    2.1409    4.2929 H   0  0  0  0  0  0  0  0  0  0  0  0
    9.6559    3.8167    4.3400 H   0  0  0  0  0  0  0  0  0  0  0  0
   10.4055    3.1494    2.8416 H   0  0  0  0  0  0  0  0  0  0  0  0
    5.9650    6.6006    0.0049 H   0  0  0  0  0  0  0  0  0  0  0  0
    4.8978    7.1619    1.3099 H   0  0  0  0  0  0  0  0  0  0  0  0
    4.2766    6.0149    0.1022 H   0  0  0  0  0  0  0  0  0  0  0  0
    7.6676    3.2398   -1.9845 H   0  0  0  0  0  0  0  0  0  0  0  0
    5.9097    2.9708   -1.9154 H   0  0  0  0  0  0  0  0  0  0  0  0
    7.0090    2.0395   -0.8496 H   0  0  0  0  0  0  0  0  0  0  0  0
  1  2  1  0  0  0  0
  1 25  1  0  0  0  0
  1 26  1  0  0  0  0
  1 27  1  0  0  0  0
  2  3  2  0  0  0  0
  2  4  1  0  0  0  0
  4  5  1  0  0  0  0
  4 12  1  0  0  0  0
  5  6  2  0  0  0  0
  5 28  1  0  0  0  0
  6  7  1  0  0  0  0
  6 13  1  0  0  0  0
  7  8  2  0  0  0  0
  7 12  1  0  0  0  0
  8  9  1  0  0  0  0
  8 29  1  0  0  0  0
  9 10  2  0  0  0  0
  9 30  1  0  0  0  0
 10 11  1  0  0  0  0
 10 31  1  0  0  0  0
 11 12  2  0  0  0  0
 11 32  1  0  0  0  0
 13 14  2  0  0  0  0
 13 33  1  0  0  0  0
 14 15  1  0  0  0  0
 14 19  1  0  0  0  0
 15 16  2  0  0  0  0
 15 17  1  0  0  0  0
 17 18  1  0  0  0  0
 18 34  1  0  0  0  0
 18 35  1  0  0  0  0
 18 36  1  0  0  0  0
 19 20  2  0  0  0  0
 19 21  1  0  0  0  0
 19 23  1  0  0  0  0
 21 22  1  0  0  0  0
 22 37  1  0  0  0  0
 22 38  1  0  0  0  0
 22 39  1  0  0  0  0
 23 24  1  0  0  0  0
 24 40  1  0  0  0  0
 24 41  1  0  0  0  0
 24 42  1  0  0  0  0
M  END
