
 OpenBabel10072619523D

 49 51  0  0  0  0  0  0  0  0999 V2000
    2.6295   -0.2799    0.0383 C   0  0  0  0  0  0  0  0  0  0  0  0
    1.1673   -0.1549    0.3523 C   0  0  0  0  0  0  0  0  0  0  0  0
    0.5226    1.0875    0.2698 C   0  0  0  0  0  0  0  0  0  0  0  0
   -0.8386    1.2212    0.5819 C   0  0  0  0  0  0  0  0  0  0  0  0
   -1.5715    0.0948    1.0069 C   0  0  0  0  0  0  0  0  0  0  0  0
   -0.9081   -1.1425    1.1055 C   0  0  0  0  0  0  0  0  0  0  0  0
    0.4436   -1.2657    0.7846 C   0  0  0  0  0  0  0  0  0  0  0  0
   -3.0497    0.1402    1.3796 C   0  0  0  0  0  0  0  0  0  0  0  0
   -3.3169    1.0234    2.6017 C   0  0  0  0  0  0  0  0  0  0  0  0
   -3.9449    0.5276    0.1995 C   0  0  0  0  0  0  0  0  0  0  0  0
   -1.5333    2.3977    0.4958 O   0  0  0  0  0  0  0  0  0  0  0  0
   -0.8183    3.5771    0.1378 C   0  0  0  0  0  0  0  0  0  0  0  0
   -1.8102    4.6932    0.1025 C   0  0  0  0  0  0  0  0  0  0  0  0
   -2.0352    5.5420    1.0861 N   0  0  0  0  0  0  0  0  0  0  0  0
   -2.9764    6.4921    0.7424 N   0  0  0  0  0  0  0  0  0  0  0  0
   -3.4274    6.3260   -0.4817 C   0  0  0  0  0  0  0  0  0  0  0  0
   -2.7425    5.0050   -1.3081 S   0  0  0  0  0  0  0  0  0  0  0  0
   -4.3274    7.1967   -1.0446 N   0  0  0  0  0  0  0  0  0  0  0  0
   -4.9229    7.0912   -2.2844 C   0  0  0  0  0  0  0  0  0  0  0  0
   -4.8183    6.1339   -3.0386 O   0  0  0  0  0  0  0  0  0  0  0  0
   -5.6513    8.2415   -2.5670 N   0  0  0  0  0  0  0  0  0  0  0  0
   -6.4465    8.4999   -3.7036 C   0  0  0  0  0  0  0  0  0  0  0  0
   -6.7645    7.5426   -4.6702 C   0  0  0  0  0  0  0  0  0  0  0  0
   -7.5645    7.8793   -5.7688 C   0  0  0  0  0  0  0  0  0  0  0  0
   -8.0514    9.1756   -5.9039 C   0  0  0  0  0  0  0  0  0  0  0  0
   -7.7491   10.1391   -4.9465 C   0  0  0  0  0  0  0  0  0  0  0  0
   -6.9518    9.8002   -3.8483 C   0  0  0  0  0  0  0  0  0  0  0  0
   -9.0325    9.5884   -7.2545 Cl  0  0  0  0  0  0  0  0  0  0  0  0
    2.9432    0.4837   -0.6815 H   0  0  0  0  0  0  0  0  0  0  0  0
    2.8488   -1.2553   -0.4093 H   0  0  0  0  0  0  0  0  0  0  0  0
    3.2205   -0.1672    0.9526 H   0  0  0  0  0  0  0  0  0  0  0  0
    1.1145    1.9393   -0.0486 H   0  0  0  0  0  0  0  0  0  0  0  0
   -1.4456   -2.0287    1.4376 H   0  0  0  0  0  0  0  0  0  0  0  0
    0.9243   -2.2371    0.8742 H   0  0  0  0  0  0  0  0  0  0  0  0
   -3.3550   -0.8755    1.6677 H   0  0  0  0  0  0  0  0  0  0  0  0
   -3.1380    2.0837    2.3990 H   0  0  0  0  0  0  0  0  0  0  0  0
   -2.6773    0.7312    3.4420 H   0  0  0  0  0  0  0  0  0  0  0  0
   -4.3590    0.9237    2.9251 H   0  0  0  0  0  0  0  0  0  0  0  0
   -3.8132    1.5709   -0.1017 H   0  0  0  0  0  0  0  0  0  0  0  0
   -5.0006    0.3962    0.4617 H   0  0  0  0  0  0  0  0  0  0  0  0
   -3.7368   -0.1011   -0.6732 H   0  0  0  0  0  0  0  0  0  0  0  0
   -0.3456    3.4663   -0.8457 H   0  0  0  0  0  0  0  0  0  0  0  0
   -0.0543    3.8006    0.8921 H   0  0  0  0  0  0  0  0  0  0  0  0
   -4.6320    7.9152   -0.4087 H   0  0  0  0  0  0  0  0  0  0  0  0
   -5.4998    9.0262   -1.9513 H   0  0  0  0  0  0  0  0  0  0  0  0
   -6.4124    6.5180   -4.5989 H   0  0  0  0  0  0  0  0  0  0  0  0
   -7.7996    7.1205   -6.5108 H   0  0  0  0  0  0  0  0  0  0  0  0
   -8.1292   11.1521   -5.0472 H   0  0  0  0  0  0  0  0  0  0  0  0
   -6.7290   10.5711   -3.1150 H   0  0  0  0  0  0  0  0  0  0  0  0
  1  2  1  0  0  0  0
  1 29  1  0  0  0  0
  1 30  1  0  0  0  0
  1 31  1  0  0  0  0
  2  3  2  0  0  0  0
  2  7  1  0  0  0  0
  3  4  1  0  0  0  0
  3 32  1  0  0  0  0
  4  5  2  0  0  0  0
  4 11  1  0  0  0  0
  5  6  1  0  0  0  0
  5  8  1  0  0  0  0
  6  7  2  0  0  0  0
  6 33  1  0  0  0  0
  7 34  1  0  0  0  0
  8  9  1  0  0  0  0
  8 10  1  0  0  0  0
  8 35  1  0  0  0  0
  9 36  1  0  0  0  0
  9 37  1  0  0  0  0
  9 38  1  0  0  0  0
 10 39  1  0  0  0  0
 10 40  1  0  0  0  0
 10 41  1  0  0  0  0
 11 12  1  0  0  0  0
 12 13  1  0  0  0  0
 12 42  1  0  0  0  0
 12 43  1  0  0  0  0
 13 14  2  0  0  0  0
 13 17  1  0  0  0  0
 14 15  1  0  0  0  0
 15 16  2  0  0  0  0
 16 17  1  0  0  0  0
 16 18  1  0  0  0  0
 18 19  1  0  0  0  0
 18 44  1  0  0  0  0
 19 20  2  0  0  0  0
 19 21  1  0  0  0  0
 21 22  1  0  0  0  0
 21 45  1  0  0  0  0
 22 23  2  0  0  0  0
 22 27  1  0  0  0  0
 23 24  1  0  0  0  0
 23 46  1  0  0  0  0
 24 25  2  0  0  0  0
 24 47  1  0  0  0  0
 25 26  1  0  0  0  0
 25 28  1  0  0  0  0
 26 27  2  0  0  0  0
 26 48  1  0  0  0  0
 27 49  1  0  0  0  0
M  END
