
 OpenBabel10072620103D

 63 65  0  0  0  0  0  0  0  0999 V2000
    2.4822    1.3647   -0.0370 C   0  0  0  0  0  0  0  0  0  0  0  0
    1.0708    0.8632   -0.1219 C   0  0  0  0  0  0  0  0  0  0  0  0
    0.2501    0.8630    1.0091 C   0  0  0  0  0  0  0  0  0  0  0  0
   -1.0817    0.4550    0.9163 C   0  0  0  0  0  0  0  0  0  0  0  0
   -1.6143    0.0383   -0.3062 C   0  0  0  0  0  0  0  0  0  0  0  0
   -0.8003    0.0523   -1.4423 C   0  0  0  0  0  0  0  0  0  0  0  0
    0.5340    0.4601   -1.3487 C   0  0  0  0  0  0  0  0  0  0  0  0
   -3.0247   -0.2951   -0.3681 N   0  0  0  0  0  0  0  0  0  0  0  0
   -3.4543   -1.3679   -1.3188 C   0  0  0  0  0  0  0  0  0  0  0  0
   -2.8639   -2.7367   -1.0221 C   0  0  0  0  0  0  0  0  0  0  0  0
   -2.7767   -3.5915   -1.9015 O   0  0  0  0  0  0  0  0  0  0  0  0
   -2.5219   -2.9126    0.3108 N   0  0  0  0  0  0  0  0  0  0  0  0
   -1.9231   -4.0614    0.7188 N   0  0  0  0  0  0  0  0  0  0  0  0
   -1.4455   -4.1457    1.9255 C   0  0  0  0  0  0  0  0  0  0  0  0
   -1.4555   -3.0541    2.9751 C   0  0  0  0  0  0  0  0  0  0  0  0
   -1.7175   -3.6470    4.3563 C   0  0  0  0  0  0  0  0  0  0  0  0
   -0.8063   -4.7609    4.6505 N   0  0  0  0  0  0  0  0  0  0  0  0
   -1.0182   -5.8563    3.6906 C   0  0  0  0  0  0  0  0  0  0  0  0
   -0.6807   -5.4052    2.2773 C   0  0  0  0  0  0  0  0  0  0  0  0
   -1.0066   -5.2339    6.0215 C   0  0  0  0  0  0  0  0  0  0  0  0
   -4.0855    1.0659   -0.3145 S   0  0  0  0  0  0  0  0  0  0  0  0
   -5.4402    0.5874   -0.5038 O   0  0  0  0  0  0  0  0  0  0  0  0
   -3.7563    1.8709    0.8434 O   0  0  0  0  0  0  0  0  0  0  0  0
   -3.6430    1.9964   -1.7675 C   0  0  0  0  0  0  0  0  0  0  0  0
   -4.2514    1.6970   -2.9923 C   0  0  0  0  0  0  0  0  0  0  0  0
   -3.9234    2.4303   -4.1408 C   0  0  0  0  0  0  0  0  0  0  0  0
   -2.9684    3.4610   -4.0411 C   0  0  0  0  0  0  0  0  0  0  0  0
   -2.4048    3.7772   -2.7970 C   0  0  0  0  0  0  0  0  0  0  0  0
   -2.7381    3.0511   -1.6575 C   0  0  0  0  0  0  0  0  0  0  0  0
   -2.5366    4.2871   -5.0473 O   0  0  0  0  0  0  0  0  0  0  0  0
   -2.4393    3.7178   -6.3471 C   0  0  0  0  0  0  0  0  0  0  0  0
   -4.4942    2.2047   -5.3644 O   0  0  0  0  0  0  0  0  0  0  0  0
   -5.5993    1.3117   -5.4339 C   0  0  0  0  0  0  0  0  0  0  0  0
    2.8879    1.2231    0.9701 H   0  0  0  0  0  0  0  0  0  0  0  0
    2.5157    2.4315   -0.2807 H   0  0  0  0  0  0  0  0  0  0  0  0
    3.1307    0.8200   -0.7308 H   0  0  0  0  0  0  0  0  0  0  0  0
    0.6377    1.1941    1.9699 H   0  0  0  0  0  0  0  0  0  0  0  0
   -1.7027    0.4902    1.8084 H   0  0  0  0  0  0  0  0  0  0  0  0
   -1.1774   -0.2291   -2.4205 H   0  0  0  0  0  0  0  0  0  0  0  0
    1.1496    0.4721   -2.2463 H   0  0  0  0  0  0  0  0  0  0  0  0
   -3.2078   -1.0958   -2.3496 H   0  0  0  0  0  0  0  0  0  0  0  0
   -4.5388   -1.5124   -1.2601 H   0  0  0  0  0  0  0  0  0  0  0  0
   -2.5289   -2.0896    0.9015 H   0  0  0  0  0  0  0  0  0  0  0  0
   -2.2226   -2.3029    2.7804 H   0  0  0  0  0  0  0  0  0  0  0  0
   -0.4781   -2.5582    2.9473 H   0  0  0  0  0  0  0  0  0  0  0  0
   -2.7635   -3.9753    4.4251 H   0  0  0  0  0  0  0  0  0  0  0  0
   -1.5803   -2.8477    5.0949 H   0  0  0  0  0  0  0  0  0  0  0  0
   -2.0548   -6.2157    3.7347 H   0  0  0  0  0  0  0  0  0  0  0  0
   -0.3681   -6.7032    3.9417 H   0  0  0  0  0  0  0  0  0  0  0  0
   -0.9158   -6.1997    1.5607 H   0  0  0  0  0  0  0  0  0  0  0  0
    0.3894   -5.1806    2.1931 H   0  0  0  0  0  0  0  0  0  0  0  0
   -0.8044   -4.4288    6.7374 H   0  0  0  0  0  0  0  0  0  0  0  0
   -0.3050   -6.0425    6.2549 H   0  0  0  0  0  0  0  0  0  0  0  0
   -2.0262   -5.5989    6.1903 H   0  0  0  0  0  0  0  0  0  0  0  0
   -4.9799    0.8931   -3.0234 H   0  0  0  0  0  0  0  0  0  0  0  0
   -1.6936    4.5978   -2.7254 H   0  0  0  0  0  0  0  0  0  0  0  0
   -2.2850    3.3099   -0.7030 H   0  0  0  0  0  0  0  0  0  0  0  0
   -1.7167    4.3136   -6.9148 H   0  0  0  0  0  0  0  0  0  0  0  0
   -3.3982    3.7851   -6.8684 H   0  0  0  0  0  0  0  0  0  0  0  0
   -2.0658    2.6887   -6.3250 H   0  0  0  0  0  0  0  0  0  0  0  0
   -5.9646    1.3130   -6.4652 H   0  0  0  0  0  0  0  0  0  0  0  0
   -6.4190    1.6436   -4.7879 H   0  0  0  0  0  0  0  0  0  0  0  0
   -5.2936    0.2879   -5.1952 H   0  0  0  0  0  0  0  0  0  0  0  0
  1  2  1  0  0  0  0
  1 34  1  0  0  0  0
  1 35  1  0  0  0  0
  1 36  1  0  0  0  0
  2  3  2  0  0  0  0
  2  7  1  0  0  0  0
  3  4  1  0  0  0  0
  3 37  1  0  0  0  0
  4  5  2  0  0  0  0
  4 38  1  0  0  0  0
  5  6  1  0  0  0  0
  5  8  1  0  0  0  0
  6  7  2  0  0  0  0
  6 39  1  0  0  0  0
  7 40  1  0  0  0  0
  8  9  1  0  0  0  0
  8 21  1  0  0  0  0
  9 10  1  0  0  0  0
  9 41  1  0  0  0  0
  9 42  1  0  0  0  0
 10 11  2  0  0  0  0
 10 12  1  0  0  0  0
 12 13  1  0  0  0  0
 12 43  1  0  0  0  0
 13 14  2  0  0  0  0
 14 15  1  0  0  0  0
 14 19  1  0  0  0  0
 15 16  1  0  0  0  0
 15 44  1  0  0  0  0
 15 45  1  0  0  0  0
 16 17  1  0  0  0  0
 16 46  1  0  0  0  0
 16 47  1  0  0  0  0
 17 18  1  0  0  0  0
 17 20  1  0  0  0  0
 18 19  1  0  0  0  0
 18 48  1  0  0  0  0
 18 49  1  0  0  0  0
 19 50  1  0  0  0  0
 19 51  1  0  0  0  0
 20 52  1  0  0  0  0
 20 53  1  0  0  0  0
 20 54  1  0  0  0  0
 21 22  2  0  0  0  0
 21 23  2  0  0  0  0
 21 24  1  0  0  0  0
 24 25  2  0  0  0  0
 24 29  1  0  0  0  0
 25 26  1  0  0  0  0
 25 55  1  0  0  0  0
 26 27  2  0  0  0  0
 26 32  1  0  0  0  0
 27 28  1  0  0  0  0
 27 30  1  0  0  0  0
 28 29  2  0  0  0  0
 28 56  1  0  0  0  0
 29 57  1  0  0  0  0
 30 31  1  0  0  0  0
 31 58  1  0  0  0  0
 31 59  1  0  0  0  0
 31 60  1  0  0  0  0
 32 33  1  0  0  0  0
 33 61  1  0  0  0  0
 33 62  1  0  0  0  0
 33 63  1  0  0  0  0
M  END
