
 OpenBabel10072616323D

 33 34  0  0  0  0  0  0  0  0999 V2000
    1.1088   -0.1537   -0.4929 C   0  0  0  0  0  0  0  0  0  0  0  0
   -0.0444   -1.1261   -0.6602 C   0  0  0  0  0  0  0  0  0  0  0  0
   -1.1499   -0.5567    0.2225 C   0  0  0  0  0  0  0  0  0  0  0  0
   -0.8708    0.9517    0.3400 C   0  0  0  0  0  0  0  0  0  0  0  0
    0.4124    1.1978   -0.4613 C   0  0  0  0  0  0  0  0  0  0  0  0
   -0.7482    1.3673    1.8075 C   0  0  0  0  0  0  0  0  0  0  0  0
    0.3294    1.5980    2.3413 O   0  0  0  0  0  0  0  0  0  0  0  0
   -1.9762    1.2989    2.4707 N   0  0  0  0  0  0  0  0  0  0  0  0
   -2.3759    1.9166    3.6370 C   0  0  0  0  0  0  0  0  0  0  0  0
   -1.5671    3.1310    4.4491 S   0  0  0  0  0  0  0  0  0  0  0  0
   -3.6090    1.5588    4.1208 N   0  0  0  0  0  0  0  0  0  0  0  0
   -4.4205    0.4189    3.9124 C   0  0  0  0  0  0  0  0  0  0  0  0
   -5.7645    0.4641    4.3358 C   0  0  0  0  0  0  0  0  0  0  0  0
   -6.6130   -0.6323    4.1673 C   0  0  0  0  0  0  0  0  0  0  0  0
   -6.1173   -1.7959    3.5901 C   0  0  0  0  0  0  0  0  0  0  0  0
   -4.7822   -1.8757    3.2006 C   0  0  0  0  0  0  0  0  0  0  0  0
   -3.9338   -0.7755    3.3701 C   0  0  0  0  0  0  0  0  0  0  0  0
   -7.1514   -3.1524    3.3739 Cl  0  0  0  0  0  0  0  0  0  0  0  0
   -6.4214    1.8918    5.0624 Cl  0  0  0  0  0  0  0  0  0  0  0  0
    1.8345   -0.2277   -1.3076 H   0  0  0  0  0  0  0  0  0  0  0  0
    1.6312   -0.3379    0.4529 H   0  0  0  0  0  0  0  0  0  0  0  0
    0.2265   -2.1474   -0.3768 H   0  0  0  0  0  0  0  0  0  0  0  0
   -0.3737   -1.1429   -1.7058 H   0  0  0  0  0  0  0  0  0  0  0  0
   -1.1318   -1.0518    1.2003 H   0  0  0  0  0  0  0  0  0  0  0  0
   -2.1340   -0.7470   -0.2189 H   0  0  0  0  0  0  0  0  0  0  0  0
   -1.6874    1.5382   -0.0994 H   0  0  0  0  0  0  0  0  0  0  0  0
    1.0557    1.9810   -0.0496 H   0  0  0  0  0  0  0  0  0  0  0  0
    0.1496    1.4929   -1.4851 H   0  0  0  0  0  0  0  0  0  0  0  0
   -2.7533    0.9881    1.9075 H   0  0  0  0  0  0  0  0  0  0  0  0
   -3.9757    2.2237    4.8018 H   0  0  0  0  0  0  0  0  0  0  0  0
   -7.6507   -0.5787    4.4858 H   0  0  0  0  0  0  0  0  0  0  0  0
   -4.3878   -2.8000    2.7832 H   0  0  0  0  0  0  0  0  0  0  0  0
   -2.8844   -0.9088    3.1254 H   0  0  0  0  0  0  0  0  0  0  0  0
  1  2  1  0  0  0  0
  1  5  1  0  0  0  0
  1 20  1  0  0  0  0
  1 21  1  0  0  0  0
  2  3  1  0  0  0  0
  2 22  1  0  0  0  0
  2 23  1  0  0  0  0
  3  4  1  0  0  0  0
  3 24  1  0  0  0  0
  3 25  1  0  0  0  0
  4  5  1  0  0  0  0
  4  6  1  0  0  0  0
  4 26  1  0  0  0  0
  5 27  1  0  0  0  0
  5 28  1  0  0  0  0
  6  7  2  0  0  0  0
  6  8  1  0  0  0  0
  8  9  1  0  0  0  0
  8 29  1  0  0  0  0
  9 10  2  0  0  0  0
  9 11  1  0  0  0  0
 11 12  1  0  0  0  0
 11 30  1  0  0  0  0
 12 13  2  0  0  0  0
 12 17  1  0  0  0  0
 13 14  1  0  0  0  0
 13 19  1  0  0  0  0
 14 15  2  0  0  0  0
 14 31  1  0  0  0  0
 15 16  1  0  0  0  0
 15 18  1  0  0  0  0
 16 17  2  0  0  0  0
 16 32  1  0  0  0  0
 17 33  1  0  0  0  0
M  END
