
 OpenBabel10072619593D

 68 67  0  0  1  0  0  0  0  0999 V2000
    0.4422    0.2129    2.2785 C   0  0  0  0  0  0  0  0  0  0  0  0
    1.9520    0.0888    2.4717 C   0  0  3  0  0  0  0  0  0  0  0  0
    2.7583    0.5794    1.2595 C   0  0  0  0  0  0  0  0  0  0  0  0
    2.4772    2.0115    0.7758 C   0  0  0  0  0  0  0  0  0  0  0  0
    2.9004    3.0976    1.6558 N   0  0  0  0  0  0  0  0  0  0  0  0
    4.3430    3.1930    1.8853 C   0  0  0  0  0  0  0  0  0  0  0  0
    5.1531    3.5259    0.6244 C   0  0  0  0  0  0  0  0  0  0  0  0
    6.6644    3.5542    0.8887 C   0  0  0  0  0  0  0  0  0  0  0  0
    7.2485    2.1468    1.0563 C   0  0  0  0  0  0  0  0  0  0  0  0
    8.7743    2.1342    1.1792 C   0  0  0  0  0  0  0  0  0  0  0  0
    9.3463    2.8655    2.3974 C   0  0  0  0  0  0  0  0  0  0  0  0
    8.8266    2.4001    3.7615 C   0  0  0  0  0  0  0  0  0  0  0  0
    9.0810    0.9170    4.0334 C   0  0  0  0  0  0  0  0  0  0  0  0
    8.7065    0.6260    5.4152 N   0  0  0  0  0  0  0  0  0  0  0  0
    8.8459   -0.5716    5.8389 C   0  0  0  0  0  0  0  0  0  0  0  0
    9.3130   -1.6658    5.1952 N   0  0  0  0  0  0  0  0  0  0  0  0
    8.4935   -0.9107    7.0987 N   0  0  0  0  0  0  0  0  0  0  0  0
    2.3960    0.7617    3.7673 C   0  0  0  0  0  0  0  0  0  0  0  0
    1.8399    1.7782    4.1882 O   0  0  0  0  0  0  0  0  0  0  0  0
    3.5967    0.1513    4.4713 C   0  0  0  0  0  0  0  0  0  0  0  0
    3.7947    0.7161    5.8760 C   0  0  0  0  0  0  0  0  0  0  0  0
    4.9965    0.0684    6.5603 C   0  0  0  0  0  0  0  0  0  0  0  0
    5.1524    0.5477    8.0034 C   0  0  0  0  0  0  0  0  0  0  0  0
    6.2759   -0.1699    8.6024 N   0  0  0  0  0  0  0  0  0  0  0  0
    6.4699   -0.0767    9.8624 C   0  0  0  0  0  0  0  0  0  0  0  0
    5.7802    0.6060   10.8008 N   0  0  0  0  0  0  0  0  0  0  0  0
    7.5149   -0.7160   10.4327 N   0  0  0  0  0  0  0  0  0  0  0  0
    0.1317   -0.2498    1.3362 H   0  0  0  0  0  0  0  0  0  0  0  0
    0.1072    1.2550    2.2771 H   0  0  0  0  0  0  0  0  0  0  0  0
   -0.0882   -0.2926    3.0927 H   0  0  0  0  0  0  0  0  0  0  0  0
    2.1614   -0.9825    2.5908 H   0  0  0  0  0  0  0  0  0  0  0  0
    2.5284   -0.0932    0.4214 H   0  0  0  0  0  0  0  0  0  0  0  0
    3.8314    0.4510    1.4467 H   0  0  0  0  0  0  0  0  0  0  0  0
    1.4027    2.1289    0.5979 H   0  0  0  0  0  0  0  0  0  0  0  0
    2.9271    2.1392   -0.2147 H   0  0  0  0  0  0  0  0  0  0  0  0
    2.4178    3.0216    2.5599 H   0  0  0  0  0  0  0  0  0  0  0  0
    4.7117    2.2825    2.3641 H   0  0  0  0  0  0  0  0  0  0  0  0
    4.5041    3.9998    2.6109 H   0  0  0  0  0  0  0  0  0  0  0  0
    4.8410    4.5105    0.2522 H   0  0  0  0  0  0  0  0  0  0  0  0
    4.9562    2.8068   -0.1780 H   0  0  0  0  0  0  0  0  0  0  0  0
    6.8705    4.1681    1.7724 H   0  0  0  0  0  0  0  0  0  0  0  0
    7.1552    4.0418    0.0371 H   0  0  0  0  0  0  0  0  0  0  0  0
    6.9768    1.5441    0.1800 H   0  0  0  0  0  0  0  0  0  0  0  0
    6.8015    1.6458    1.9207 H   0  0  0  0  0  0  0  0  0  0  0  0
    9.2051    2.5821    0.2747 H   0  0  0  0  0  0  0  0  0  0  0  0
    9.1152    1.0920    1.1884 H   0  0  0  0  0  0  0  0  0  0  0  0
    9.1559    3.9406    2.2968 H   0  0  0  0  0  0  0  0  0  0  0  0
   10.4378    2.7522    2.3801 H   0  0  0  0  0  0  0  0  0  0  0  0
    7.7562    2.6198    3.8556 H   0  0  0  0  0  0  0  0  0  0  0  0
    9.3252    2.9980    4.5356 H   0  0  0  0  0  0  0  0  0  0  0  0
   10.1428    0.6973    3.8708 H   0  0  0  0  0  0  0  0  0  0  0  0
    8.4816    0.3070    3.3485 H   0  0  0  0  0  0  0  0  0  0  0  0
    9.8324   -1.4620    4.3523 H   0  0  0  0  0  0  0  0  0  0  0  0
    9.8415   -2.2679    5.8146 H   0  0  0  0  0  0  0  0  0  0  0  0
    7.9253   -0.1627    7.5131 H   0  0  0  0  0  0  0  0  0  0  0  0
    7.9000   -1.7328    7.1084 H   0  0  0  0  0  0  0  0  0  0  0  0
    4.4868    0.3304    3.8596 H   0  0  0  0  0  0  0  0  0  0  0  0
    3.4349   -0.9301    4.5392 H   0  0  0  0  0  0  0  0  0  0  0  0
    2.8896    0.5416    6.4708 H   0  0  0  0  0  0  0  0  0  0  0  0
    3.9382    1.8027    5.8299 H   0  0  0  0  0  0  0  0  0  0  0  0
    5.9052    0.2987    5.9929 H   0  0  0  0  0  0  0  0  0  0  0  0
    4.8872   -1.0233    6.5480 H   0  0  0  0  0  0  0  0  0  0  0  0
    4.2222    0.3468    8.5463 H   0  0  0  0  0  0  0  0  0  0  0  0
    5.3453    1.6264    8.0162 H   0  0  0  0  0  0  0  0  0  0  0  0
    4.8727    0.9381   10.5021 H   0  0  0  0  0  0  0  0  0  0  0  0
    5.7121    0.0984   11.6753 H   0  0  0  0  0  0  0  0  0  0  0  0
    8.1537   -1.0630    9.7213 H   0  0  0  0  0  0  0  0  0  0  0  0
    8.0118   -0.1293   11.0927 H   0  0  0  0  0  0  0  0  0  0  0  0
  1  2  1  0  0  0  0
  1 28  1  0  0  0  0
  1 29  1  0  0  0  0
  1 30  1  0  0  0  0
  2  3  1  0  0  0  0
  2 18  1  0  0  0  0
  2 31  1  0  0  0  0
  3  4  1  0  0  0  0
  3 32  1  0  0  0  0
  3 33  1  0  0  0  0
  4  5  1  0  0  0  0
  4 34  1  0  0  0  0
  4 35  1  0  0  0  0
  5  6  1  0  0  0  0
  5 36  1  0  0  0  0
  6  7  1  0  0  0  0
  6 37  1  0  0  0  0
  6 38  1  0  0  0  0
  7  8  1  0  0  0  0
  7 39  1  0  0  0  0
  7 40  1  0  0  0  0
  8  9  1  0  0  0  0
  8 41  1  0  0  0  0
  8 42  1  0  0  0  0
  9 10  1  0  0  0  0
  9 43  1  0  0  0  0
  9 44  1  0  0  0  0
 10 11  1  0  0  0  0
 10 45  1  0  0  0  0
 10 46  1  0  0  0  0
 11 12  1  0  0  0  0
 11 47  1  0  0  0  0
 11 48  1  0  0  0  0
 12 13  1  0  0  0  0
 12 49  1  0  0  0  0
 12 50  1  0  0  0  0
 13 14  1  0  0  0  0
 13 51  1  0  0  0  0
 13 52  1  0  0  0  0
 14 15  2  0  0  0  0
 15 16  1  0  0  0  0
 15 17  1  0  0  0  0
 16 53  1  0  0  0  0
 16 54  1  0  0  0  0
 17 55  1  0  0  0  0
 17 56  1  0  0  0  0
 18 19  2  0  0  0  0
 18 20  1  0  0  0  0
 20 21  1  0  0  0  0
 20 57  1  0  0  0  0
 20 58  1  0  0  0  0
 21 22  1  0  0  0  0
 21 59  1  0  0  0  0
 21 60  1  0  0  0  0
 22 23  1  0  0  0  0
 22 61  1  0  0  0  0
 22 62  1  0  0  0  0
 23 24  1  0  0  0  0
 23 63  1  0  0  0  0
 23 64  1  0  0  0  0
 24 25  2  0  0  0  0
 25 26  1  0  0  0  0
 25 27  1  0  0  0  0
 26 65  1  0  0  0  0
 26 66  1  0  0  0  0
 27 67  1  0  0  0  0
 27 68  1  0  0  0  0
M  END
