
 OpenBabel10072620003D

 18 18  0  0  0  0  0  0  0  0999 V2000
    2.2917   -0.1109   -0.0525 C   0  0  0  0  0  0  0  0  0  0  0  0
    1.7136    1.1299   -0.3122 C   0  0  0  0  0  0  0  0  0  0  0  0
    0.3380    1.2952   -0.1687 C   0  0  0  0  0  0  0  0  0  0  0  0
   -0.4540    0.2166    0.2340 C   0  0  0  0  0  0  0  0  0  0  0  0
    0.1173   -1.0419    0.5016 C   0  0  0  0  0  0  0  0  0  0  0  0
    1.4987   -1.1913    0.3504 C   0  0  0  0  0  0  0  0  0  0  0  0
   -0.7329   -2.1012    0.8926 N   0  0  0  0  0  0  0  0  0  0  0  0
   -0.3847   -3.3593    1.2954 C   0  0  0  0  0  0  0  0  0  0  0  0
    0.7332   -3.8169    1.4779 O   0  0  0  0  0  0  0  0  0  0  0  0
   -1.4805   -4.1440    1.5084 N   0  0  0  0  0  0  0  0  0  0  0  0
   -2.1598    0.4753    0.3925 Cl  0  0  0  0  0  0  0  0  0  0  0  0
    3.3655   -0.2448   -0.1630 H   0  0  0  0  0  0  0  0  0  0  0  0
    2.3341    1.9652   -0.6264 H   0  0  0  0  0  0  0  0  0  0  0  0
   -0.1109    2.2638   -0.3714 H   0  0  0  0  0  0  0  0  0  0  0  0
    1.9916   -2.1412    0.5365 H   0  0  0  0  0  0  0  0  0  0  0  0
   -1.7102   -1.8613    0.9954 H   0  0  0  0  0  0  0  0  0  0  0  0
   -2.2487   -4.0422    0.8616 H   0  0  0  0  0  0  0  0  0  0  0  0
   -1.2336   -5.1060    1.7095 H   0  0  0  0  0  0  0  0  0  0  0  0
  1  2  2  0  0  0  0
  1  6  1  0  0  0  0
  1 12  1  0  0  0  0
  2  3  1  0  0  0  0
  2 13  1  0  0  0  0
  3  4  2  0  0  0  0
  3 14  1  0  0  0  0
  4  5  1  0  0  0  0
  4 11  1  0  0  0  0
  5  6  2  0  0  0  0
  5  7  1  0  0  0  0
  6 15  1  0  0  0  0
  7  8  1  0  0  0  0
  7 16  1  0  0  0  0
  8  9  2  0  0  0  0
  8 10  1  0  0  0  0
 10 17  1  0  0  0  0
 10 18  1  0  0  0  0
M  END
