
 OpenBabel10072620233D

 23 23  0  0  0  0  0  0  0  0999 V2000
    0.9192   -0.0101   -0.0213 C   0  0  0  0  0  0  0  0  0  0  0  0
    2.4089   -0.0890   -0.0188 C   0  0  0  0  0  0  0  0  0  0  0  0
    3.0679    1.0721   -0.0194 N   0  0  0  0  0  0  0  0  0  0  0  0
    4.6879    0.7845   -0.0164 S   0  0  0  0  0  0  0  0  0  0  0  0
    4.5580   -0.9167   -0.0141 C   0  0  0  0  0  0  0  0  0  0  0  0
    3.2230   -1.2960   -0.0158 C   0  0  0  0  0  0  0  0  0  0  0  0
    2.7572   -2.6924   -0.0146 C   0  0  0  0  0  0  0  0  0  0  0  0
    1.4664   -2.8722   -0.0149 N   0  0  0  0  0  0  0  0  0  0  0  0
    0.9775   -4.1507   -0.0137 N   0  0  0  0  0  0  0  0  0  0  0  0
   -0.3651   -4.4039   -0.0143 C   0  0  0  0  0  0  0  0  0  0  0  0
   -0.9671   -5.9490   -0.0128 S   0  0  0  0  0  0  0  0  0  0  0  0
   -1.1729   -3.3207   -0.0163 N   0  0  0  0  0  0  0  0  0  0  0  0
    3.7451   -3.8440   -0.0130 C   0  0  0  0  0  0  0  0  0  0  0  0
    0.5708    1.0288   -0.0241 H   0  0  0  0  0  0  0  0  0  0  0  0
    0.5074   -0.4897    0.8721 H   0  0  0  0  0  0  0  0  0  0  0  0
    0.5100   -0.4937   -0.9137 H   0  0  0  0  0  0  0  0  0  0  0  0
    5.4569   -1.5137   -0.0116 H   0  0  0  0  0  0  0  0  0  0  0  0
    1.5942   -4.9557   -0.0122 H   0  0  0  0  0  0  0  0  0  0  0  0
   -0.7350   -2.4100   -0.0162 H   0  0  0  0  0  0  0  0  0  0  0  0
   -2.1784   -3.4111   -0.0163 H   0  0  0  0  0  0  0  0  0  0  0  0
    4.7862   -3.5247   -0.0140 H   0  0  0  0  0  0  0  0  0  0  0  0
    3.5843   -4.4594   -0.9037 H   0  0  0  0  0  0  0  0  0  0  0  0
    3.5848   -4.4564    0.8798 H   0  0  0  0  0  0  0  0  0  0  0  0
  1  2  1  0  0  0  0
  1 14  1  0  0  0  0
  1 15  1  0  0  0  0
  1 16  1  0  0  0  0
  2  3  2  0  0  0  0
  2  6  1  0  0  0  0
  3  4  1  0  0  0  0
  4  5  1  0  0  0  0
  5  6  2  0  0  0  0
  5 17  1  0  0  0  0
  6  7  1  0  0  0  0
  7  8  2  0  0  0  0
  7 13  1  0  0  0  0
  8  9  1  0  0  0  0
  9 10  1  0  0  0  0
  9 18  1  0  0  0  0
 10 11  2  0  0  0  0
 10 12  1  0  0  0  0
 12 19  1  0  0  0  0
 12 20  1  0  0  0  0
 13 21  1  0  0  0  0
 13 22  1  0  0  0  0
 13 23  1  0  0  0  0
M  END
