
 OpenBabel10072616413D

 75 79  0  0  0  0  0  0  0  0999 V2000
    0.5596   -7.1076    2.0862 C   0  0  0  0  0  0  0  0  0  0  0  0
    0.7585   -5.7069    1.7236 N   0  0  0  0  0  0  0  0  0  0  0  0
   -0.4669   -5.1337    1.1378 C   0  0  0  0  0  0  0  0  0  0  0  0
   -0.3220   -3.6234    0.8341 C   0  0  0  0  0  0  0  0  0  0  0  0
    0.0911   -2.7942    1.9876 N   0  0  0  0  0  0  0  0  0  0  0  0
    1.3154   -3.4040    2.5646 C   0  0  0  0  0  0  0  0  0  0  0  0
    1.1955   -4.9153    2.8875 C   0  0  0  0  0  0  0  0  0  0  0  0
   -0.9465   -2.6585    3.0238 C   0  0  0  0  0  0  0  0  0  0  0  0
   -2.2072   -1.9130    2.5605 C   0  0  0  0  0  0  0  0  0  0  0  0
   -3.1307   -1.5954    3.7421 C   0  0  0  0  0  0  0  0  0  0  0  0
   -3.7717   -2.7984    4.2522 N   0  0  0  0  0  0  0  0  0  0  0  0
   -4.0893   -2.8069    5.5997 C   0  0  0  0  0  0  0  0  0  0  0  0
   -4.2022   -4.0134    6.1670 N   0  0  0  0  0  0  0  0  0  0  0  0
   -4.4588   -4.0882    7.4693 C   0  0  0  0  0  0  0  0  0  0  0  0
   -4.5872   -5.2976    8.0274 N   0  0  0  0  0  0  0  0  0  0  0  0
   -4.8035   -5.4082    9.3631 C   0  0  0  0  0  0  0  0  0  0  0  0
   -4.9106   -4.2959   10.2176 C   0  0  0  0  0  0  0  0  0  0  0  0
   -4.7989   -3.0380    9.6259 C   0  0  0  0  0  0  0  0  0  0  0  0
   -4.5790   -2.9413    8.2459 C   0  0  0  0  0  0  0  0  0  0  0  0
   -4.4660   -1.7408    7.5775 C   0  0  0  0  0  0  0  0  0  0  0  0
   -4.2276   -1.6544    6.2636 N   0  0  0  0  0  0  0  0  0  0  0  0
   -5.1657   -4.4018   11.6711 C   0  0  0  0  0  0  0  0  0  0  0  0
   -4.1115   -4.4295   12.6076 C   0  0  0  0  0  0  0  0  0  0  0  0
   -4.3597   -4.5620   13.9799 C   0  0  0  0  0  0  0  0  0  0  0  0
   -5.6658   -4.6700   14.4488 C   0  0  0  0  0  0  0  0  0  0  0  0
   -6.7260   -4.6263   13.5498 C   0  0  0  0  0  0  0  0  0  0  0  0
   -6.4793   -4.4958   12.1781 C   0  0  0  0  0  0  0  0  0  0  0  0
   -7.8570   -4.4557   11.1317 Cl  0  0  0  0  0  0  0  0  0  0  0  0
   -2.4567   -4.3063   12.1097 Cl  0  0  0  0  0  0  0  0  0  0  0  0
   -4.9469   -6.6824    9.9280 N   0  0  0  0  0  0  0  0  0  0  0  0
   -5.0367   -7.9081    9.3592 C   0  0  0  0  0  0  0  0  0  0  0  0
   -5.2741   -8.8658   10.0906 O   0  0  0  0  0  0  0  0  0  0  0  0
   -4.8744   -8.0159    8.0166 N   0  0  0  0  0  0  0  0  0  0  0  0
   -5.2663   -9.2224    7.3073 C   0  0  0  0  0  0  0  0  0  0  0  0
   -4.2653   -9.5879    6.2113 C   0  0  0  0  0  0  0  0  0  0  0  0
   -4.7043  -10.8576    5.4810 C   0  0  0  0  0  0  0  0  0  0  0  0
   -6.1138  -10.7278    4.9082 C   0  0  0  0  0  0  0  0  0  0  0  0
   -7.1235  -10.3063    5.9724 C   0  0  0  0  0  0  0  0  0  0  0  0
   -6.6746   -9.0574    6.7253 C   0  0  0  0  0  0  0  0  0  0  0  0
    0.2846   -7.6970    1.2044 H   0  0  0  0  0  0  0  0  0  0  0  0
   -0.2242   -7.2334    2.8420 H   0  0  0  0  0  0  0  0  0  0  0  0
    1.4875   -7.5392    2.4773 H   0  0  0  0  0  0  0  0  0  0  0  0
   -1.3261   -5.2903    1.8025 H   0  0  0  0  0  0  0  0  0  0  0  0
   -0.6899   -5.6497    0.1960 H   0  0  0  0  0  0  0  0  0  0  0  0
   -1.2494   -3.2445    0.3918 H   0  0  0  0  0  0  0  0  0  0  0  0
    0.4340   -3.5008    0.0456 H   0  0  0  0  0  0  0  0  0  0  0  0
    1.6162   -2.8605    3.4691 H   0  0  0  0  0  0  0  0  0  0  0  0
    2.1384   -3.2602    1.8517 H   0  0  0  0  0  0  0  0  0  0  0  0
    0.5043   -5.0542    3.7289 H   0  0  0  0  0  0  0  0  0  0  0  0
    2.1778   -5.2720    3.2200 H   0  0  0  0  0  0  0  0  0  0  0  0
   -0.5158   -2.0876    3.8573 H   0  0  0  0  0  0  0  0  0  0  0  0
   -1.2335   -3.6337    3.4295 H   0  0  0  0  0  0  0  0  0  0  0  0
   -2.7581   -2.4990    1.8163 H   0  0  0  0  0  0  0  0  0  0  0  0
   -1.9140   -0.9676    2.0870 H   0  0  0  0  0  0  0  0  0  0  0  0
   -3.9146   -0.9073    3.4013 H   0  0  0  0  0  0  0  0  0  0  0  0
   -2.5469   -1.0679    4.5086 H   0  0  0  0  0  0  0  0  0  0  0  0
   -3.3636   -3.6985    4.0261 H   0  0  0  0  0  0  0  0  0  0  0  0
   -4.8859   -2.1365   10.2287 H   0  0  0  0  0  0  0  0  0  0  0  0
   -4.5571   -0.7853    8.0855 H   0  0  0  0  0  0  0  0  0  0  0  0
   -3.5342   -4.5917   14.6885 H   0  0  0  0  0  0  0  0  0  0  0  0
   -5.8557   -4.7754   15.5143 H   0  0  0  0  0  0  0  0  0  0  0  0
   -7.7455   -4.7036   13.9234 H   0  0  0  0  0  0  0  0  0  0  0  0
   -5.0915   -6.7490   10.9233 H   0  0  0  0  0  0  0  0  0  0  0  0
   -4.7941   -7.1385    7.5061 H   0  0  0  0  0  0  0  0  0  0  0  0
   -5.2914  -10.0523    8.0250 H   0  0  0  0  0  0  0  0  0  0  0  0
   -3.2719   -9.7450    6.6481 H   0  0  0  0  0  0  0  0  0  0  0  0
   -4.1667   -8.7620    5.4966 H   0  0  0  0  0  0  0  0  0  0  0  0
   -4.6792  -11.7035    6.1798 H   0  0  0  0  0  0  0  0  0  0  0  0
   -3.9975  -11.0896    4.6769 H   0  0  0  0  0  0  0  0  0  0  0  0
   -6.4233  -11.6852    4.4746 H   0  0  0  0  0  0  0  0  0  0  0  0
   -6.1136   -9.9964    4.0910 H   0  0  0  0  0  0  0  0  0  0  0  0
   -7.2600  -11.1278    6.6866 H   0  0  0  0  0  0  0  0  0  0  0  0
   -8.0988  -10.1236    5.5070 H   0  0  0  0  0  0  0  0  0  0  0  0
   -7.3902   -8.8372    7.5263 H   0  0  0  0  0  0  0  0  0  0  0  0
   -6.6923   -8.1948    6.0468 H   0  0  0  0  0  0  0  0  0  0  0  0
  1  2  1  0  0  0  0
  1 40  1  0  0  0  0
  1 41  1  0  0  0  0
  1 42  1  0  0  0  0
  2  3  1  0  0  0  0
  2  7  1  0  0  0  0
  3  4  1  0  0  0  0
  3 43  1  0  0  0  0
  3 44  1  0  0  0  0
  4  5  1  0  0  0  0
  4 45  1  0  0  0  0
  4 46  1  0  0  0  0
  5  6  1  0  0  0  0
  5  8  1  0  0  0  0
  6  7  1  0  0  0  0
  6 47  1  0  0  0  0
  6 48  1  0  0  0  0
  7 49  1  0  0  0  0
  7 50  1  0  0  0  0
  8  9  1  0  0  0  0
  8 51  1  0  0  0  0
  8 52  1  0  0  0  0
  9 10  1  0  0  0  0
  9 53  1  0  0  0  0
  9 54  1  0  0  0  0
 10 11  1  0  0  0  0
 10 55  1  0  0  0  0
 10 56  1  0  0  0  0
 11 12  1  0  0  0  0
 11 57  1  0  0  0  0
 12 13  2  0  0  0  0
 12 21  1  0  0  0  0
 13 14  1  0  0  0  0
 14 15  2  0  0  0  0
 14 19  1  0  0  0  0
 15 16  1  0  0  0  0
 16 17  2  0  0  0  0
 16 30  1  0  0  0  0
 17 18  1  0  0  0  0
 17 22  1  0  0  0  0
 18 19  2  0  0  0  0
 18 58  1  0  0  0  0
 19 20  1  0  0  0  0
 20 21  2  0  0  0  0
 20 59  1  0  0  0  0
 22 23  2  0  0  0  0
 22 27  1  0  0  0  0
 23 24  1  0  0  0  0
 23 29  1  0  0  0  0
 24 25  2  0  0  0  0
 24 60  1  0  0  0  0
 25 26  1  0  0  0  0
 25 61  1  0  0  0  0
 26 27  2  0  0  0  0
 26 62  1  0  0  0  0
 27 28  1  0  0  0  0
 30 31  1  0  0  0  0
 30 63  1  0  0  0  0
 31 32  2  0  0  0  0
 31 33  1  0  0  0  0
 33 34  1  0  0  0  0
 33 64  1  0  0  0  0
 34 35  1  0  0  0  0
 34 39  1  0  0  0  0
 34 65  1  0  0  0  0
 35 36  1  0  0  0  0
 35 66  1  0  0  0  0
 35 67  1  0  0  0  0
 36 37  1  0  0  0  0
 36 68  1  0  0  0  0
 36 69  1  0  0  0  0
 37 38  1  0  0  0  0
 37 70  1  0  0  0  0
 37 71  1  0  0  0  0
 38 39  1  0  0  0  0
 38 72  1  0  0  0  0
 38 73  1  0  0  0  0
 39 74  1  0  0  0  0
 39 75  1  0  0  0  0
M  END
