
 OpenBabel10072620103D

 28 28  0  0  0  0  0  0  0  0999 V2000
    1.2981   -0.1746    0.5345 C   0  0  0  0  0  0  0  0  0  0  0  0
    2.5967    0.4492    0.0493 C   0  0  0  0  0  0  0  0  0  0  0  0
    3.1988   -0.4060   -1.0062 N   0  0  0  0  0  0  0  0  0  0  0  0
    2.7093   -0.1243   -2.3822 C   0  0  0  0  0  0  0  0  0  0  0  0
    3.3938    1.0635   -3.0367 C   0  0  0  0  0  0  0  0  0  0  0  0
    4.8560   -0.7637   -0.8534 S   0  0  0  0  0  0  0  0  0  0  0  0
    5.2652   -1.5689   -1.9832 O   0  0  0  0  0  0  0  0  0  0  0  0
    5.5414    0.4645   -0.5110 O   0  0  0  0  0  0  0  0  0  0  0  0
    4.8808   -1.8178    0.5561 C   0  0  0  0  0  0  0  0  0  0  0  0
    4.2769   -3.0600    0.4609 C   0  0  0  0  0  0  0  0  0  0  0  0
    4.2280   -3.9408    1.4884 N   0  0  0  0  0  0  0  0  0  0  0  0
    4.8240   -3.5563    2.6375 C   0  0  0  0  0  0  0  0  0  0  0  0
    5.4704   -2.3417    2.8183 C   0  0  0  0  0  0  0  0  0  0  0  0
    5.5025   -1.4498    1.7475 C   0  0  0  0  0  0  0  0  0  0  0  0
    4.7247   -4.6992    3.9111 Cl  0  0  0  0  0  0  0  0  0  0  0  0
    0.8769    0.4193    1.3521 H   0  0  0  0  0  0  0  0  0  0  0  0
    1.4616   -1.1939    0.9003 H   0  0  0  0  0  0  0  0  0  0  0  0
    0.5541   -0.2222   -0.2671 H   0  0  0  0  0  0  0  0  0  0  0  0
    3.2708    0.5498    0.9061 H   0  0  0  0  0  0  0  0  0  0  0  0
    2.4102    1.4609   -0.3249 H   0  0  0  0  0  0  0  0  0  0  0  0
    1.6288    0.0564   -2.3520 H   0  0  0  0  0  0  0  0  0  0  0  0
    2.8436   -1.0230   -2.9950 H   0  0  0  0  0  0  0  0  0  0  0  0
    3.3149    1.9671   -2.4252 H   0  0  0  0  0  0  0  0  0  0  0  0
    2.9294    1.2691   -4.0066 H   0  0  0  0  0  0  0  0  0  0  0  0
    4.4554    0.8701   -3.2167 H   0  0  0  0  0  0  0  0  0  0  0  0
    3.7986   -3.3946   -0.4564 H   0  0  0  0  0  0  0  0  0  0  0  0
    5.9380   -2.0937    3.7650 H   0  0  0  0  0  0  0  0  0  0  0  0
    6.0040   -0.4901    1.8464 H   0  0  0  0  0  0  0  0  0  0  0  0
  1  2  1  0  0  0  0
  1 16  1  0  0  0  0
  1 17  1  0  0  0  0
  1 18  1  0  0  0  0
  2  3  1  0  0  0  0
  2 19  1  0  0  0  0
  2 20  1  0  0  0  0
  3  4  1  0  0  0  0
  3  6  1  0  0  0  0
  4  5  1  0  0  0  0
  4 21  1  0  0  0  0
  4 22  1  0  0  0  0
  5 23  1  0  0  0  0
  5 24  1  0  0  0  0
  5 25  1  0  0  0  0
  6  7  2  0  0  0  0
  6  8  2  0  0  0  0
  6  9  1  0  0  0  0
  9 10  2  0  0  0  0
  9 14  1  0  0  0  0
 10 11  1  0  0  0  0
 10 26  1  0  0  0  0
 11 12  2  0  0  0  0
 12 13  1  0  0  0  0
 12 15  1  0  0  0  0
 13 14  2  0  0  0  0
 13 27  1  0  0  0  0
 14 28  1  0  0  0  0
M  END
