
 OpenBabel10072620113D

 82 82  0  0  1  0  0  0  0  0999 V2000
    4.6364    1.2475   -1.2852 C   0  0  0  0  0  0  0  0  0  0  0  0
    3.4233    0.9882   -0.4093 C   0  0  0  0  0  0  0  0  0  0  0  0
    2.6098   -0.1934   -0.8167 N   0  0  0  0  0  0  0  0  0  0  0  0
    1.9633   -0.1082   -2.1735 C   0  0  0  0  0  0  0  0  0  0  0  0
    1.3073    1.2469   -2.4583 C   0  0  0  0  0  0  0  0  0  0  0  0
    0.6417    1.2565   -3.7319 O   0  0  0  0  0  0  0  0  0  0  0  0
   -0.6958    1.0139   -3.6792 C   0  0  0  0  0  0  0  0  0  0  0  0
   -1.2698    0.6281   -2.6754 O   0  0  0  0  0  0  0  0  0  0  0  0
   -1.2230    1.3153   -4.9019 N   0  0  0  0  0  0  0  0  0  0  0  0
   -2.5726    1.3259   -5.2905 C   0  0  0  0  0  0  0  0  0  0  0  0
   -3.6227    0.9603   -4.4485 C   0  0  0  0  0  0  0  0  0  0  0  0
   -4.9507    0.9627   -4.9001 C   0  0  0  0  0  0  0  0  0  0  0  0
   -5.2335    1.3465   -6.2244 C   0  0  0  0  0  0  0  0  0  0  0  0
   -4.1772    1.7356   -7.0607 C   0  0  0  0  0  0  0  0  0  0  0  0
   -2.8603    1.7245   -6.5968 C   0  0  0  0  0  0  0  0  0  0  0  0
   -6.6374    1.3848   -6.7623 C   0  0  0  0  0  0  0  0  0  0  0  0
   -6.0062    0.5300   -4.0771 N   0  0  0  0  0  0  0  0  0  0  0  0
   -5.9818    0.3271   -2.7296 C   0  0  0  0  0  0  0  0  0  0  0  0
   -5.1191    0.6647   -1.9369 O   0  0  0  0  0  0  0  0  0  0  0  0
   -7.1293   -0.3156   -2.3832 O   0  0  0  0  0  0  0  0  0  0  0  0
   -7.2069   -0.6890   -0.9974 C   0  0  3  0  0  0  0  0  0  0  0  0
   -7.8667    0.4467   -0.2204 C   0  0  0  0  0  0  0  0  0  0  0  0
   -8.0138   -1.9872   -0.8975 C   0  0  0  0  0  0  0  0  0  0  0  0
   -7.9796   -2.4987    0.4440 O   0  0  0  0  0  0  0  0  0  0  0  0
   -6.8909   -3.2543    0.7471 C   0  0  0  0  0  0  0  0  0  0  0  0
   -6.0255   -3.5896   -0.0470 O   0  0  0  0  0  0  0  0  0  0  0  0
   -6.8522   -3.5947    2.1986 C   0  0  0  0  0  0  0  0  0  0  0  0
   -7.8459   -3.2574    3.0399 C   0  0  0  0  0  0  0  0  0  0  0  0
   -5.6337   -4.3174    2.6907 C   0  0  0  0  0  0  0  0  0  0  0  0
    3.2459   -1.7547   -0.4625 S   0  0  0  0  0  0  0  0  0  0  0  0
    2.2305   -2.7150   -0.8415 O   0  0  0  0  0  0  0  0  0  0  0  0
    4.5423   -1.8037   -1.1064 O   0  0  0  0  0  0  0  0  0  0  0  0
    3.4509   -1.7754    1.3584 C   0  0  0  0  0  0  0  0  0  0  0  0
    3.8148   -3.1613    1.8574 C   0  0  0  0  0  0  0  0  0  0  0  0
    5.1350   -3.7595    1.3923 C   0  0  0  0  0  0  0  0  0  0  0  0
    6.4069   -2.9598    1.6681 C   0  0  0  0  0  0  0  0  0  0  0  0
    6.7426   -2.5792    3.1065 C   0  0  0  0  0  0  0  0  0  0  0  0
    7.0373   -3.7473    4.0156 C   0  0  0  0  0  0  0  0  0  0  0  0
    7.4458   -3.2456    5.3892 C   0  0  0  0  0  0  0  0  0  0  0  0
    6.4636   -2.5246    5.9777 F   0  0  0  0  0  0  0  0  0  0  0  0
    7.7234   -4.2765    6.2257 F   0  0  0  0  0  0  0  0  0  0  0  0
    8.5480   -2.4635    5.3570 F   0  0  0  0  0  0  0  0  0  0  0  0
    5.9426   -4.5464    4.1246 F   0  0  0  0  0  0  0  0  0  0  0  0
    8.0208   -4.5233    3.4848 F   0  0  0  0  0  0  0  0  0  0  0  0
    7.8386   -1.7576    3.0737 F   0  0  0  0  0  0  0  0  0  0  0  0
    5.7457   -1.8113    3.6196 F   0  0  0  0  0  0  0  0  0  0  0  0
    7.4704   -3.6405    1.1405 F   0  0  0  0  0  0  0  0  0  0  0  0
    6.3437   -1.8046    0.9387 F   0  0  0  0  0  0  0  0  0  0  0  0
    5.2775   -4.9953    1.9605 F   0  0  0  0  0  0  0  0  0  0  0  0
    5.0515   -4.0229    0.0572 F   0  0  0  0  0  0  0  0  0  0  0  0
    3.8546   -3.1283    3.2316 F   0  0  0  0  0  0  0  0  0  0  0  0
    2.8058   -4.0389    1.5777 F   0  0  0  0  0  0  0  0  0  0  0  0
    4.3993   -0.8817    1.7741 F   0  0  0  0  0  0  0  0  0  0  0  0
    2.2984   -1.3628    1.9786 F   0  0  0  0  0  0  0  0  0  0  0  0
    5.0933    2.2027   -1.0079 H   0  0  0  0  0  0  0  0  0  0  0  0
    4.3798    1.2962   -2.3471 H   0  0  0  0  0  0  0  0  0  0  0  0
    5.4041    0.4812   -1.1577 H   0  0  0  0  0  0  0  0  0  0  0  0
    2.7803    1.8745   -0.4053 H   0  0  0  0  0  0  0  0  0  0  0  0
    3.7294    0.8882    0.6338 H   0  0  0  0  0  0  0  0  0  0  0  0
    1.1915   -0.8831   -2.2509 H   0  0  0  0  0  0  0  0  0  0  0  0
    2.7049   -0.3248   -2.9508 H   0  0  0  0  0  0  0  0  0  0  0  0
    2.0659    2.0326   -2.5262 H   0  0  0  0  0  0  0  0  0  0  0  0
    0.6327    1.5430   -1.6448 H   0  0  0  0  0  0  0  0  0  0  0  0
   -0.5353    1.6120   -5.5781 H   0  0  0  0  0  0  0  0  0  0  0  0
   -3.4073    0.6270   -3.4402 H   0  0  0  0  0  0  0  0  0  0  0  0
   -4.3695    2.0465   -8.0861 H   0  0  0  0  0  0  0  0  0  0  0  0
   -2.0643    2.0301   -7.2708 H   0  0  0  0  0  0  0  0  0  0  0  0
   -7.0930    0.3918   -6.6970 H   0  0  0  0  0  0  0  0  0  0  0  0
   -6.6609    1.6857   -7.8152 H   0  0  0  0  0  0  0  0  0  0  0  0
   -7.2377    2.1041   -6.1949 H   0  0  0  0  0  0  0  0  0  0  0  0
   -6.8970    0.3174   -4.4967 H   0  0  0  0  0  0  0  0  0  0  0  0
   -6.2090   -0.8735   -0.5811 H   0  0  0  0  0  0  0  0  0  0  0  0
   -8.8675    0.6556   -0.6143 H   0  0  0  0  0  0  0  0  0  0  0  0
   -7.2922    1.3732   -0.3287 H   0  0  0  0  0  0  0  0  0  0  0  0
   -7.9457    0.2091    0.8443 H   0  0  0  0  0  0  0  0  0  0  0  0
   -7.6590   -2.7342   -1.6201 H   0  0  0  0  0  0  0  0  0  0  0  0
   -9.0630   -1.8044   -1.1591 H   0  0  0  0  0  0  0  0  0  0  0  0
   -8.7344   -2.7263    2.7134 H   0  0  0  0  0  0  0  0  0  0  0  0
   -7.7961   -3.5158    4.0928 H   0  0  0  0  0  0  0  0  0  0  0  0
   -4.8313   -4.3521    1.9479 H   0  0  0  0  0  0  0  0  0  0  0  0
   -5.8881   -5.3484    2.9556 H   0  0  0  0  0  0  0  0  0  0  0  0
   -5.2232   -3.8219    3.5773 H   0  0  0  0  0  0  0  0  0  0  0  0
  1  2  1  0  0  0  0
  1 55  1  0  0  0  0
  1 56  1  0  0  0  0
  1 57  1  0  0  0  0
  2  3  1  0  0  0  0
  2 58  1  0  0  0  0
  2 59  1  0  0  0  0
  3  4  1  0  0  0  0
  3 30  1  0  0  0  0
  4  5  1  0  0  0  0
  4 60  1  0  0  0  0
  4 61  1  0  0  0  0
  5  6  1  0  0  0  0
  5 62  1  0  0  0  0
  5 63  1  0  0  0  0
  6  7  1  0  0  0  0
  7  8  2  0  0  0  0
  7  9  1  0  0  0  0
  9 10  1  0  0  0  0
  9 64  1  0  0  0  0
 10 11  2  0  0  0  0
 10 15  1  0  0  0  0
 11 12  1  0  0  0  0
 11 65  1  0  0  0  0
 12 13  2  0  0  0  0
 12 17  1  0  0  0  0
 13 14  1  0  0  0  0
 13 16  1  0  0  0  0
 14 15  2  0  0  0  0
 14 66  1  0  0  0  0
 15 67  1  0  0  0  0
 16 68  1  0  0  0  0
 16 69  1  0  0  0  0
 16 70  1  0  0  0  0
 17 18  1  0  0  0  0
 17 71  1  0  0  0  0
 18 19  2  0  0  0  0
 18 20  1  0  0  0  0
 20 21  1  0  0  0  0
 21 22  1  0  0  0  0
 21 23  1  0  0  0  0
 21 72  1  0  0  0  0
 22 73  1  0  0  0  0
 22 74  1  0  0  0  0
 22 75  1  0  0  0  0
 23 24  1  0  0  0  0
 23 76  1  0  0  0  0
 23 77  1  0  0  0  0
 24 25  1  0  0  0  0
 25 26  2  0  0  0  0
 25 27  1  0  0  0  0
 27 28  2  0  0  0  0
 27 29  1  0  0  0  0
 28 78  1  0  0  0  0
 28 79  1  0  0  0  0
 29 80  1  0  0  0  0
 29 81  1  0  0  0  0
 29 82  1  0  0  0  0
 30 31  2  0  0  0  0
 30 32  2  0  0  0  0
 30 33  1  0  0  0  0
 33 34  1  0  0  0  0
 33 53  1  0  0  0  0
 33 54  1  0  0  0  0
 34 35  1  0  0  0  0
 34 51  1  0  0  0  0
 34 52  1  0  0  0  0
 35 36  1  0  0  0  0
 35 49  1  0  0  0  0
 35 50  1  0  0  0  0
 36 37  1  0  0  0  0
 36 47  1  0  0  0  0
 36 48  1  0  0  0  0
 37 38  1  0  0  0  0
 37 45  1  0  0  0  0
 37 46  1  0  0  0  0
 38 39  1  0  0  0  0
 38 43  1  0  0  0  0
 38 44  1  0  0  0  0
 39 40  1  0  0  0  0
 39 41  1  0  0  0  0
 39 42  1  0  0  0  0
M  END
