
 OpenBabel10072620063D

 32 33  0  0  0  0  0  0  0  0999 V2000
    1.9746   -0.8887    1.4414 C   0  0  0  0  0  0  0  0  0  0  0  0
    2.9145   -0.2951    0.5596 O   0  0  0  0  0  0  0  0  0  0  0  0
    3.2704    1.0149    0.7473 C   0  0  0  0  0  0  0  0  0  0  0  0
    2.8956    1.8942    1.7778 C   0  0  0  0  0  0  0  0  0  0  0  0
    3.3910    3.2128    1.7624 C   0  0  0  0  0  0  0  0  0  0  0  0
    4.2431    3.6669    0.7498 C   0  0  0  0  0  0  0  0  0  0  0  0
    4.6080    2.7845   -0.2670 C   0  0  0  0  0  0  0  0  0  0  0  0
    4.1292    1.4732   -0.2621 C   0  0  0  0  0  0  0  0  0  0  0  0
    4.7616    4.9801    0.6832 N   0  0  0  0  0  0  0  0  0  0  0  0
    4.5460    6.0176    1.5706 C   0  0  0  0  0  0  0  0  0  0  0  0
    3.8639    5.9770    2.5865 O   0  0  0  0  0  0  0  0  0  0  0  0
    5.1890    7.1682    1.1586 N   0  0  0  0  0  0  0  0  0  0  0  0
    5.1397    8.2282    2.0011 N   0  0  0  0  0  0  0  0  0  0  0  0
    6.0338    8.5132    2.9775 C   0  0  0  0  0  0  0  0  0  0  0  0
    5.7712    9.7120    3.4516 N   0  0  0  0  0  0  0  0  0  0  0  0
    4.6820   10.2092    2.7556 N   0  0  0  0  0  0  0  0  0  0  0  0
    4.3173    9.2976    1.8779 C   0  0  0  0  0  0  0  0  0  0  0  0
    2.0600    1.4271    2.7587 O   0  0  0  0  0  0  0  0  0  0  0  0
    1.6947    2.3070    3.8150 C   0  0  0  0  0  0  0  0  0  0  0  0
    1.0121   -0.3691    1.4104 H   0  0  0  0  0  0  0  0  0  0  0  0
    2.3719   -0.9600    2.4580 H   0  0  0  0  0  0  0  0  0  0  0  0
    1.7997   -1.9121    1.0949 H   0  0  0  0  0  0  0  0  0  0  0  0
    3.0959    3.8970    2.5471 H   0  0  0  0  0  0  0  0  0  0  0  0
    5.2664    3.0944   -1.0741 H   0  0  0  0  0  0  0  0  0  0  0  0
    4.4222    0.7969   -1.0633 H   0  0  0  0  0  0  0  0  0  0  0  0
    5.3119    5.1921   -0.1358 H   0  0  0  0  0  0  0  0  0  0  0  0
    6.0644    7.0864    0.6638 H   0  0  0  0  0  0  0  0  0  0  0  0
    6.8285    7.8556    3.2953 H   0  0  0  0  0  0  0  0  0  0  0  0
    3.5090    9.3737    1.1674 H   0  0  0  0  0  0  0  0  0  0  0  0
    1.0513    1.7524    4.5048 H   0  0  0  0  0  0  0  0  0  0  0  0
    1.1189    3.1582    3.4378 H   0  0  0  0  0  0  0  0  0  0  0  0
    2.5739    2.6358    4.3780 H   0  0  0  0  0  0  0  0  0  0  0  0
  1  2  1  0  0  0  0
  1 20  1  0  0  0  0
  1 21  1  0  0  0  0
  1 22  1  0  0  0  0
  2  3  1  0  0  0  0
  3  4  2  0  0  0  0
  3  8  1  0  0  0  0
  4  5  1  0  0  0  0
  4 18  1  0  0  0  0
  5  6  2  0  0  0  0
  5 23  1  0  0  0  0
  6  7  1  0  0  0  0
  6  9  1  0  0  0  0
  7  8  2  0  0  0  0
  7 24  1  0  0  0  0
  8 25  1  0  0  0  0
  9 10  1  0  0  0  0
  9 26  1  0  0  0  0
 10 11  2  0  0  0  0
 10 12  1  0  0  0  0
 12 13  1  0  0  0  0
 12 27  1  0  0  0  0
 13 14  1  0  0  0  0
 13 17  1  0  0  0  0
 14 15  2  0  0  0  0
 14 28  1  0  0  0  0
 15 16  1  0  0  0  0
 16 17  2  0  0  0  0
 17 29  1  0  0  0  0
 18 19  1  0  0  0  0
 19 30  1  0  0  0  0
 19 31  1  0  0  0  0
 19 32  1  0  0  0  0
M  END
