
 OpenBabel10072620123D

 79 83  0  0  0  0  0  0  0  0999 V2000
    1.6127   -4.9697    1.8746 C   0  0  0  0  0  0  0  0  0  0  0  0
    2.1486   -4.4416    0.5233 C   0  0  0  0  0  0  0  0  0  0  0  0
    1.8690   -5.5457   -0.5240 C   0  0  0  0  0  0  0  0  0  0  0  0
    3.6738   -4.2496    0.6301 C   0  0  0  0  0  0  0  0  0  0  0  0
    1.5216   -3.0883    0.1388 C   0  0  0  0  0  0  0  0  0  0  0  0
    1.1841   -2.1304    1.1129 C   0  0  0  0  0  0  0  0  0  0  0  0
    0.6304   -0.8912    0.7612 C   0  0  0  0  0  0  0  0  0  0  0  0
    0.4040   -0.5680   -0.5786 C   0  0  0  0  0  0  0  0  0  0  0  0
    0.7497   -1.4984   -1.5582 C   0  0  0  0  0  0  0  0  0  0  0  0
    1.3091   -2.7332   -1.2051 C   0  0  0  0  0  0  0  0  0  0  0  0
   -0.2252    0.7154   -0.9262 C   0  0  0  0  0  0  0  0  0  0  0  0
    0.3885    1.7834   -1.4726 C   0  0  0  0  0  0  0  0  0  0  0  0
    1.7523    1.8064   -1.8490 C   0  0  0  0  0  0  0  0  0  0  0  0
    2.3868    0.9852   -2.6617 N   0  0  0  0  0  0  0  0  0  0  0  0
    3.6458    1.4938   -2.8133 C   0  0  0  0  0  0  0  0  0  0  0  0
    4.7150    0.9997   -3.5727 C   0  0  0  0  0  0  0  0  0  0  0  0
    5.9135    1.7212   -3.5971 C   0  0  0  0  0  0  0  0  0  0  0  0
    6.0455    2.9102   -2.8786 C   0  0  0  0  0  0  0  0  0  0  0  0
    4.9931    3.4078   -2.1018 C   0  0  0  0  0  0  0  0  0  0  0  0
    3.8009    2.6704   -2.0893 C   0  0  0  0  0  0  0  0  0  0  0  0
    2.5899    2.8302   -1.4429 N   0  0  0  0  0  0  0  0  0  0  0  0
    2.2778    3.9103   -0.5158 C   0  0  0  0  0  0  0  0  0  0  0  0
    2.3990    3.4927    0.9319 C   0  0  0  0  0  0  0  0  0  0  0  0
    3.6045    2.9988    1.4549 C   0  0  0  0  0  0  0  0  0  0  0  0
    3.7038    2.6408    2.8023 C   0  0  0  0  0  0  0  0  0  0  0  0
    2.6002    2.7734    3.6396 C   0  0  0  0  0  0  0  0  0  0  0  0
    1.4017    3.2757    3.1440 C   0  0  0  0  0  0  0  0  0  0  0  0
    1.3052    3.6395    1.7981 C   0  0  0  0  0  0  0  0  0  0  0  0
    2.7212    2.3134    5.2926 Cl  0  0  0  0  0  0  0  0  0  0  0  0
   -1.6254    0.7014   -0.7244 O   0  0  0  0  0  0  0  0  0  0  0  0
   -2.1390    1.7041    0.0390 C   0  0  0  0  0  0  0  0  0  0  0  0
   -1.5275    2.4818    0.7575 O   0  0  0  0  0  0  0  0  0  0  0  0
   -3.6114    1.7564   -0.1265 C   0  0  0  0  0  0  0  0  0  0  0  0
   -4.2524    1.2640   -1.2663 C   0  0  0  0  0  0  0  0  0  0  0  0
   -5.6343    1.4309   -1.4220 C   0  0  0  0  0  0  0  0  0  0  0  0
   -6.4091    2.0874   -0.4499 C   0  0  0  0  0  0  0  0  0  0  0  0
   -5.7444    2.5540    0.7007 C   0  0  0  0  0  0  0  0  0  0  0  0
   -4.3643    2.3985    0.8583 C   0  0  0  0  0  0  0  0  0  0  0  0
   -7.9232    2.3130   -0.6107 C   0  0  0  0  0  0  0  0  0  0  0  0
   -8.4850    1.8339   -1.9685 C   0  0  0  0  0  0  0  0  0  0  0  0
   -8.2419    3.8207   -0.4983 C   0  0  0  0  0  0  0  0  0  0  0  0
   -8.6774    1.5486    0.4974 C   0  0  0  0  0  0  0  0  0  0  0  0
    0.5167   -4.9843    1.8899 H   0  0  0  0  0  0  0  0  0  0  0  0
    1.9529   -4.3623    2.7199 H   0  0  0  0  0  0  0  0  0  0  0  0
    1.9590   -5.9914    2.0713 H   0  0  0  0  0  0  0  0  0  0  0  0
    2.3742   -5.3476   -1.4756 H   0  0  0  0  0  0  0  0  0  0  0  0
    2.2324   -6.5222   -0.1822 H   0  0  0  0  0  0  0  0  0  0  0  0
    0.7957   -5.6429   -0.7247 H   0  0  0  0  0  0  0  0  0  0  0  0
    3.9302   -3.4939    1.3820 H   0  0  0  0  0  0  0  0  0  0  0  0
    4.1745   -5.1839    0.9104 H   0  0  0  0  0  0  0  0  0  0  0  0
    4.0983   -3.9171   -0.3251 H   0  0  0  0  0  0  0  0  0  0  0  0
    1.3511   -2.3219    2.1695 H   0  0  0  0  0  0  0  0  0  0  0  0
    0.3823   -0.1777    1.5443 H   0  0  0  0  0  0  0  0  0  0  0  0
    0.6060   -1.2615   -2.6101 H   0  0  0  0  0  0  0  0  0  0  0  0
    1.5824   -3.4023   -2.0158 H   0  0  0  0  0  0  0  0  0  0  0  0
   -0.1987    2.6661   -1.7030 H   0  0  0  0  0  0  0  0  0  0  0  0
    4.6024    0.0737   -4.1255 H   0  0  0  0  0  0  0  0  0  0  0  0
    6.7476    1.3500   -4.1868 H   0  0  0  0  0  0  0  0  0  0  0  0
    6.9847    3.4587   -2.9186 H   0  0  0  0  0  0  0  0  0  0  0  0
    5.1127    4.3222   -1.5315 H   0  0  0  0  0  0  0  0  0  0  0  0
    2.9572    4.7480   -0.7088 H   0  0  0  0  0  0  0  0  0  0  0  0
    1.2715    4.2715   -0.7549 H   0  0  0  0  0  0  0  0  0  0  0  0
    4.4788    2.8773    0.8193 H   0  0  0  0  0  0  0  0  0  0  0  0
    4.6437    2.2549    3.1868 H   0  0  0  0  0  0  0  0  0  0  0  0
    0.5369    3.3828    3.7931 H   0  0  0  0  0  0  0  0  0  0  0  0
    0.3561    4.0278    1.4329 H   0  0  0  0  0  0  0  0  0  0  0  0
   -3.6927    0.7723   -2.0594 H   0  0  0  0  0  0  0  0  0  0  0  0
   -6.0812    1.0433   -2.3339 H   0  0  0  0  0  0  0  0  0  0  0  0
   -6.2942    3.0622    1.4908 H   0  0  0  0  0  0  0  0  0  0  0  0
   -3.8807    2.7931    1.7498 H   0  0  0  0  0  0  0  0  0  0  0  0
   -7.9905    2.3338   -2.8097 H   0  0  0  0  0  0  0  0  0  0  0  0
   -8.3667    0.7518   -2.0964 H   0  0  0  0  0  0  0  0  0  0  0  0
   -9.5570    2.0491   -2.0504 H   0  0  0  0  0  0  0  0  0  0  0  0
   -7.6625    4.4028   -1.2251 H   0  0  0  0  0  0  0  0  0  0  0  0
   -9.3044    4.0155   -0.6847 H   0  0  0  0  0  0  0  0  0  0  0  0
   -8.0169    4.2192    0.4968 H   0  0  0  0  0  0  0  0  0  0  0  0
   -8.4558    0.4748    0.4557 H   0  0  0  0  0  0  0  0  0  0  0  0
   -9.7619    1.6725    0.3909 H   0  0  0  0  0  0  0  0  0  0  0  0
   -8.4062    1.9031    1.4985 H   0  0  0  0  0  0  0  0  0  0  0  0
  1  2  1  0  0  0  0
  1 43  1  0  0  0  0
  1 44  1  0  0  0  0
  1 45  1  0  0  0  0
  2  3  1  0  0  0  0
  2  4  1  0  0  0  0
  2  5  1  0  0  0  0
  3 46  1  0  0  0  0
  3 47  1  0  0  0  0
  3 48  1  0  0  0  0
  4 49  1  0  0  0  0
  4 50  1  0  0  0  0
  4 51  1  0  0  0  0
  5  6  2  0  0  0  0
  5 10  1  0  0  0  0
  6  7  1  0  0  0  0
  6 52  1  0  0  0  0
  7  8  2  0  0  0  0
  7 53  1  0  0  0  0
  8  9  1  0  0  0  0
  8 11  1  0  0  0  0
  9 10  2  0  0  0  0
  9 54  1  0  0  0  0
 10 55  1  0  0  0  0
 11 12  2  0  0  0  0
 11 30  1  0  0  0  0
 12 13  1  0  0  0  0
 12 56  1  0  0  0  0
 13 14  2  0  0  0  0
 13 21  1  0  0  0  0
 14 15  1  0  0  0  0
 15 16  2  0  0  0  0
 15 20  1  0  0  0  0
 16 17  1  0  0  0  0
 16 57  1  0  0  0  0
 17 18  2  0  0  0  0
 17 58  1  0  0  0  0
 18 19  1  0  0  0  0
 18 59  1  0  0  0  0
 19 20  2  0  0  0  0
 19 60  1  0  0  0  0
 20 21  1  0  0  0  0
 21 22  1  0  0  0  0
 22 23  1  0  0  0  0
 22 61  1  0  0  0  0
 22 62  1  0  0  0  0
 23 24  2  0  0  0  0
 23 28  1  0  0  0  0
 24 25  1  0  0  0  0
 24 63  1  0  0  0  0
 25 26  2  0  0  0  0
 25 64  1  0  0  0  0
 26 27  1  0  0  0  0
 26 29  1  0  0  0  0
 27 28  2  0  0  0  0
 27 65  1  0  0  0  0
 28 66  1  0  0  0  0
 30 31  1  0  0  0  0
 31 32  2  0  0  0  0
 31 33  1  0  0  0  0
 33 34  2  0  0  0  0
 33 38  1  0  0  0  0
 34 35  1  0  0  0  0
 34 67  1  0  0  0  0
 35 36  2  0  0  0  0
 35 68  1  0  0  0  0
 36 37  1  0  0  0  0
 36 39  1  0  0  0  0
 37 38  2  0  0  0  0
 37 69  1  0  0  0  0
 38 70  1  0  0  0  0
 39 40  1  0  0  0  0
 39 41  1  0  0  0  0
 39 42  1  0  0  0  0
 40 71  1  0  0  0  0
 40 72  1  0  0  0  0
 40 73  1  0  0  0  0
 41 74  1  0  0  0  0
 41 75  1  0  0  0  0
 41 76  1  0  0  0  0
 42 77  1  0  0  0  0
 42 78  1  0  0  0  0
 42 79  1  0  0  0  0
M  END
