
 OpenBabel10072620173D

 55 56  0  0  1  0  0  0  0  0999 V2000
    1.7316    0.2426   -0.5209 C   0  0  0  0  0  0  0  0  0  0  0  0
    3.0799    0.7459   -0.9964 C   0  0  0  0  0  0  0  0  0  0  0  0
    3.6033    1.6936   -0.0499 O   0  0  0  0  0  0  0  0  0  0  0  0
    4.4501    1.2023    0.8920 C   0  0  0  0  0  0  0  0  0  0  0  0
    4.7274    0.0173    1.0268 O   0  0  0  0  0  0  0  0  0  0  0  0
    4.9339    2.2821    1.8473 C   0  0  3  0  0  0  0  0  0  0  0  0
    4.0470    2.2590    3.0923 C   0  0  0  0  0  0  0  0  0  0  0  0
    3.5224    3.6834    3.2548 C   0  0  3  0  0  0  0  0  0  0  0  0
    3.8252    4.3638    2.0416 O   0  0  0  0  0  0  0  0  0  0  0  0
    4.7251    3.6629    1.2963 C   0  0  0  0  0  0  0  0  0  0  0  0
    5.3161    4.1673    0.3553 O   0  0  0  0  0  0  0  0  0  0  0  0
    2.0114    3.7218    3.4660 C   0  0  0  0  0  0  0  0  0  0  0  0
    4.1907    4.4332    4.4273 C   0  0  0  0  0  0  0  0  0  0  0  0
    4.4528    3.8549    5.4827 O   0  0  0  0  0  0  0  0  0  0  0  0
    4.4628    5.9215    4.2334 C   0  0  0  0  0  0  0  0  0  0  0  0
    5.2936    6.6217    5.6978 S   0  0  0  0  0  0  0  0  0  0  0  0
    6.0561    8.0222    5.0895 N   0  3  0  0  0  0  0  0  0  0  0  0
    5.3871    8.9138    4.3242 C   0  0  0  0  0  0  0  0  0  0  0  0
    6.0348   10.0533    3.8513 C   0  0  0  0  0  0  0  0  0  0  0  0
    7.3653   10.2832    4.1761 C   0  0  0  0  0  0  0  0  0  0  0  0
    8.0169    9.3700    4.9942 C   0  0  0  0  0  0  0  0  0  0  0  0
    7.3419    8.2424    5.4554 C   0  0  0  0  0  0  0  0  0  0  0  0
    9.8182    9.6478    5.4795 Br  0  0  0  0  0  0  0  0  0  0  0  0
    5.0931   11.2823    2.7738 Br  0  0  0  0  0  0  0  0  0  0  0  0
    6.4399    2.0552    2.1339 C   0  0  0  0  0  0  0  0  0  0  0  0
    7.1049    3.0875    3.0575 C   0  0  0  0  0  0  0  0  0  0  0  0
    8.5944    2.8029    3.3334 C   0  0  0  0  0  0  0  0  0  0  0  0
    9.4437    2.8153    2.0617 C   0  0  0  0  0  0  0  0  0  0  0  0
    9.1336    3.8344    4.3285 C   0  0  0  0  0  0  0  0  0  0  0  0
    1.3012   -0.4509   -1.2482 H   0  0  0  0  0  0  0  0  0  0  0  0
    1.0416    1.0809   -0.3786 H   0  0  0  0  0  0  0  0  0  0  0  0
    1.8158   -0.2681    0.4432 H   0  0  0  0  0  0  0  0  0  0  0  0
    2.9588    1.2763   -1.9461 H   0  0  0  0  0  0  0  0  0  0  0  0
    3.7802   -0.0780   -1.1723 H   0  0  0  0  0  0  0  0  0  0  0  0
    4.5869    1.8963    3.9735 H   0  0  0  0  0  0  0  0  0  0  0  0
    3.2112    1.5578    2.9672 H   0  0  0  0  0  0  0  0  0  0  0  0
    1.4862    3.2789    2.6124 H   0  0  0  0  0  0  0  0  0  0  0  0
    1.6508    4.7535    3.5498 H   0  0  0  0  0  0  0  0  0  0  0  0
    1.7183    3.1883    4.3764 H   0  0  0  0  0  0  0  0  0  0  0  0
    3.5157    6.4411    4.0696 H   0  0  0  0  0  0  0  0  0  0  0  0
    5.1239    6.0477    3.3723 H   0  0  0  0  0  0  0  0  0  0  0  0
    4.3400    8.7238    4.1102 H   0  0  0  0  0  0  0  0  0  0  0  0
    7.8846   11.1651    3.8029 H   0  0  0  0  0  0  0  0  0  0  0  0
    7.8217    7.5081    6.0981 H   0  0  0  0  0  0  0  0  0  0  0  0
    6.9700    2.0452    1.1730 H   0  0  0  0  0  0  0  0  0  0  0  0
    6.5835    1.0572    2.5687 H   0  0  0  0  0  0  0  0  0  0  0  0
    6.5856    3.0998    4.0207 H   0  0  0  0  0  0  0  0  0  0  0  0
    7.0046    4.0907    2.6268 H   0  0  0  0  0  0  0  0  0  0  0  0
    8.6841    1.8117    3.7958 H   0  0  0  0  0  0  0  0  0  0  0  0
    9.2963    3.7393    1.4926 H   0  0  0  0  0  0  0  0  0  0  0  0
    9.1956    1.9709    1.4111 H   0  0  0  0  0  0  0  0  0  0  0  0
   10.5088    2.7318    2.3036 H   0  0  0  0  0  0  0  0  0  0  0  0
    9.0729    4.8495    3.9210 H   0  0  0  0  0  0  0  0  0  0  0  0
   10.1804    3.6278    4.5748 H   0  0  0  0  0  0  0  0  0  0  0  0
    8.5610    3.8107    5.2618 H   0  0  0  0  0  0  0  0  0  0  0  0
  1  2  1  0  0  0  0
  1 30  1  0  0  0  0
  1 31  1  0  0  0  0
  1 32  1  0  0  0  0
  2  3  1  0  0  0  0
  2 33  1  0  0  0  0
  2 34  1  0  0  0  0
  3  4  1  0  0  0  0
  4  5  2  0  0  0  0
  4  6  1  0  0  0  0
  6  7  1  0  0  0  0
  6 10  1  0  0  0  0
  6 25  1  0  0  0  0
  7  8  1  0  0  0  0
  7 35  1  0  0  0  0
  7 36  1  0  0  0  0
  8  9  1  0  0  0  0
  8 12  1  0  0  0  0
  8 13  1  0  0  0  0
  9 10  1  0  0  0  0
 10 11  2  0  0  0  0
 12 37  1  0  0  0  0
 12 38  1  0  0  0  0
 12 39  1  0  0  0  0
 13 14  2  0  0  0  0
 13 15  1  0  0  0  0
 15 16  1  0  0  0  0
 15 40  1  0  0  0  0
 15 41  1  0  0  0  0
 16 17  1  0  0  0  0
 17 18  2  0  0  0  0
 17 22  1  0  0  0  0
 18 19  1  0  0  0  0
 18 42  1  0  0  0  0
 19 20  2  0  0  0  0
 19 24  1  0  0  0  0
 20 21  1  0  0  0  0
 20 43  1  0  0  0  0
 21 22  2  0  0  0  0
 21 23  1  0  0  0  0
 22 44  1  0  0  0  0
 25 26  1  0  0  0  0
 25 45  1  0  0  0  0
 25 46  1  0  0  0  0
 26 27  1  0  0  0  0
 26 47  1  0  0  0  0
 26 48  1  0  0  0  0
 27 28  1  0  0  0  0
 27 29  1  0  0  0  0
 27 49  1  0  0  0  0
 28 50  1  0  0  0  0
 28 51  1  0  0  0  0
 28 52  1  0  0  0  0
 29 53  1  0  0  0  0
 29 54  1  0  0  0  0
 29 55  1  0  0  0  0
M  CHG  1  17   1
M  END
