
 OpenBabel10072619553D

 39 41  0  0  0  0  0  0  0  0999 V2000
    7.7673   -2.4617   -5.4122 C   0  0  0  0  0  0  0  0  0  0  0  0
    7.6788   -2.4476   -3.8972 C   0  0  0  0  0  0  0  0  0  0  0  0
    6.2982   -2.3940   -3.5263 O   0  0  0  0  0  0  0  0  0  0  0  0
    6.0709   -1.8580   -2.2779 C   0  0  0  0  0  0  0  0  0  0  0  0
    6.9131   -2.0993   -1.1855 C   0  0  0  0  0  0  0  0  0  0  0  0
    6.6415   -1.5124    0.0500 C   0  0  0  0  0  0  0  0  0  0  0  0
    5.5244   -0.6953    0.1996 C   0  0  0  0  0  0  0  0  0  0  0  0
    4.6700   -0.4660   -0.8826 C   0  0  0  0  0  0  0  0  0  0  0  0
    4.9264   -1.0509   -2.1253 C   0  0  0  0  0  0  0  0  0  0  0  0
    4.0883   -0.8784   -3.2459 N   0  0  0  0  0  0  0  0  0  0  0  0
    3.0480   -0.0133   -3.4111 C   0  0  0  0  0  0  0  0  0  0  0  0
    2.6824    0.8435   -2.6066 O   0  0  0  0  0  0  0  0  0  0  0  0
    2.3716   -0.0797   -4.5974 N   0  0  0  0  0  0  0  0  0  0  0  0
    2.5067   -0.9863   -5.6498 C   0  0  0  0  0  0  0  0  0  0  0  0
    3.3902   -2.0021   -5.5522 N   0  0  0  0  0  0  0  0  0  0  0  0
    3.4750   -2.8912   -6.5585 C   0  0  0  0  0  0  0  0  0  0  0  0
    2.6997   -2.7763   -7.7209 C   0  0  0  0  0  0  0  0  0  0  0  0
    1.7998   -1.7069   -7.8174 C   0  0  0  0  0  0  0  0  0  0  0  0
    1.6969   -0.8055   -6.7626 C   0  0  0  0  0  0  0  0  0  0  0  0
    2.8624   -3.7419   -8.7152 C   0  0  0  0  0  0  0  0  0  0  0  0
    3.7163   -4.7835   -8.6236 N   0  0  0  0  0  0  0  0  0  0  0  0
    4.4352   -4.8713   -7.4873 C   0  0  0  0  0  0  0  0  0  0  0  0
    4.3440   -3.9606   -6.4493 C   0  0  0  0  0  0  0  0  0  0  0  0
    8.8104   -2.4379   -5.7396 H   0  0  0  0  0  0  0  0  0  0  0  0
    7.2405   -1.6020   -5.8397 H   0  0  0  0  0  0  0  0  0  0  0  0
    7.2982   -3.3626   -5.8180 H   0  0  0  0  0  0  0  0  0  0  0  0
    8.2286   -1.5744   -3.5243 H   0  0  0  0  0  0  0  0  0  0  0  0
    8.1280   -3.3639   -3.4982 H   0  0  0  0  0  0  0  0  0  0  0  0
    7.7814   -2.7440   -1.2732 H   0  0  0  0  0  0  0  0  0  0  0  0
    7.2979   -1.6938    0.8971 H   0  0  0  0  0  0  0  0  0  0  0  0
    5.3049   -0.2403    1.1622 H   0  0  0  0  0  0  0  0  0  0  0  0
    3.8001    0.1631   -0.7224 H   0  0  0  0  0  0  0  0  0  0  0  0
    4.3141   -1.4533   -4.0570 H   0  0  0  0  0  0  0  0  0  0  0  0
    1.6568    0.6287   -4.6661 H   0  0  0  0  0  0  0  0  0  0  0  0
    1.1741   -1.5796   -8.6968 H   0  0  0  0  0  0  0  0  0  0  0  0
    0.9939    0.0183   -6.8231 H   0  0  0  0  0  0  0  0  0  0  0  0
    2.2903   -3.7062   -9.6385 H   0  0  0  0  0  0  0  0  0  0  0  0
    5.1099   -5.7209   -7.4269 H   0  0  0  0  0  0  0  0  0  0  0  0
    4.9428   -4.0863   -5.5538 H   0  0  0  0  0  0  0  0  0  0  0  0
  1  2  1  0  0  0  0
  1 24  1  0  0  0  0
  1 25  1  0  0  0  0
  1 26  1  0  0  0  0
  2  3  1  0  0  0  0
  2 27  1  0  0  0  0
  2 28  1  0  0  0  0
  3  4  1  0  0  0  0
  4  5  2  0  0  0  0
  4  9  1  0  0  0  0
  5  6  1  0  0  0  0
  5 29  1  0  0  0  0
  6  7  2  0  0  0  0
  6 30  1  0  0  0  0
  7  8  1  0  0  0  0
  7 31  1  0  0  0  0
  8  9  2  0  0  0  0
  8 32  1  0  0  0  0
  9 10  1  0  0  0  0
 10 11  1  0  0  0  0
 10 33  1  0  0  0  0
 11 12  2  0  0  0  0
 11 13  1  0  0  0  0
 13 14  1  0  0  0  0
 13 34  1  0  0  0  0
 14 15  2  0  0  0  0
 14 19  1  0  0  0  0
 15 16  1  0  0  0  0
 16 17  2  0  0  0  0
 16 23  1  0  0  0  0
 17 18  1  0  0  0  0
 17 20  1  0  0  0  0
 18 19  2  0  0  0  0
 18 35  1  0  0  0  0
 19 36  1  0  0  0  0
 20 21  2  0  0  0  0
 20 37  1  0  0  0  0
 21 22  1  0  0  0  0
 22 23  2  0  0  0  0
 22 38  1  0  0  0  0
 23 39  1  0  0  0  0
M  END
