
 OpenBabel10072620203D

 30 31  0  0  0  0  0  0  0  0999 V2000
   -0.1249    1.6184   -1.8277 C   0  0  0  0  0  0  0  0  0  0  0  0
    0.0403    0.4501   -0.9209 C   0  0  0  0  0  0  0  0  0  0  0  0
    0.8858   -0.6327   -1.0551 C   0  0  0  0  0  0  0  0  0  0  0  0
    0.7498   -1.5628    0.0224 C   0  0  0  0  0  0  0  0  0  0  0  0
   -0.2007   -1.1611    0.9485 C   0  0  0  0  0  0  0  0  0  0  0  0
   -0.9004    0.3398    0.4970 S   0  0  0  0  0  0  0  0  0  0  0  0
   -0.6748   -1.7941    2.2133 C   0  0  0  0  0  0  0  0  0  0  0  0
    1.6517   -3.0518    0.0968 S   0  0  0  0  0  0  0  0  0  0  0  0
    2.5887   -2.9872   -1.0031 O   0  0  0  0  0  0  0  0  0  0  0  0
    2.0901   -3.1348    1.4716 O   0  0  0  0  0  0  0  0  0  0  0  0
    0.5564   -4.3227   -0.1482 N   0  0  0  0  0  0  0  0  0  0  0  0
   -0.2134   -4.2986   -1.3527 C   0  0  0  0  0  0  0  0  0  0  0  0
   -1.5765   -4.0153   -1.2835 C   0  0  0  0  0  0  0  0  0  0  0  0
   -2.3290   -3.9710   -2.4587 C   0  0  0  0  0  0  0  0  0  0  0  0
   -1.7296   -4.2036   -3.6967 C   0  0  0  0  0  0  0  0  0  0  0  0
   -0.3647   -4.4806   -3.7628 C   0  0  0  0  0  0  0  0  0  0  0  0
    0.3927   -4.5236   -2.5894 C   0  0  0  0  0  0  0  0  0  0  0  0
   -4.0145   -3.6327   -2.3771 Cl  0  0  0  0  0  0  0  0  0  0  0  0
    0.5355    1.5390   -2.6971 H   0  0  0  0  0  0  0  0  0  0  0  0
    0.1128    2.5519   -1.3065 H   0  0  0  0  0  0  0  0  0  0  0  0
   -1.1554    1.6759   -2.1946 H   0  0  0  0  0  0  0  0  0  0  0  0
    1.5674   -0.7558   -1.8882 H   0  0  0  0  0  0  0  0  0  0  0  0
   -0.1993   -2.7569    2.4087 H   0  0  0  0  0  0  0  0  0  0  0  0
   -1.7558   -1.9739    2.1734 H   0  0  0  0  0  0  0  0  0  0  0  0
   -0.4649   -1.1404    3.0679 H   0  0  0  0  0  0  0  0  0  0  0  0
    0.0374   -4.5040    0.7089 H   0  0  0  0  0  0  0  0  0  0  0  0
   -2.0615   -3.8285   -0.3300 H   0  0  0  0  0  0  0  0  0  0  0  0
   -2.3209   -4.1741   -4.6090 H   0  0  0  0  0  0  0  0  0  0  0  0
    0.1097   -4.6708   -4.7231 H   0  0  0  0  0  0  0  0  0  0  0  0
    1.4572   -4.7433   -2.6551 H   0  0  0  0  0  0  0  0  0  0  0  0
  1  2  1  0  0  0  0
  1 19  1  0  0  0  0
  1 20  1  0  0  0  0
  1 21  1  0  0  0  0
  2  3  2  0  0  0  0
  2  6  1  0  0  0  0
  3  4  1  0  0  0  0
  3 22  1  0  0  0  0
  4  5  2  0  0  0  0
  4  8  1  0  0  0  0
  5  6  1  0  0  0  0
  5  7  1  0  0  0  0
  7 23  1  0  0  0  0
  7 24  1  0  0  0  0
  7 25  1  0  0  0  0
  8  9  2  0  0  0  0
  8 10  2  0  0  0  0
  8 11  1  0  0  0  0
 11 12  1  0  0  0  0
 11 26  1  0  0  0  0
 12 13  2  0  0  0  0
 12 17  1  0  0  0  0
 13 14  1  0  0  0  0
 13 27  1  0  0  0  0
 14 15  2  0  0  0  0
 14 18  1  0  0  0  0
 15 16  1  0  0  0  0
 15 28  1  0  0  0  0
 16 17  2  0  0  0  0
 16 29  1  0  0  0  0
 17 30  1  0  0  0  0
M  END
