
 OpenBabel10072620203D

 56 56  0  0  1  0  0  0  0  0999 V2000
    2.3771   -0.9172    3.1451 C   0  0  0  0  0  0  0  0  0  0  0  0
    3.6385   -0.4930    2.4598 C   0  0  0  0  0  0  0  0  0  0  0  0
    4.7601   -0.8742    2.7690 O   0  0  0  0  0  0  0  0  0  0  0  0
    3.3586    0.3798    1.4520 O   0  0  0  0  0  0  0  0  0  0  0  0
    4.5005    0.8811    0.7404 C   0  0  0  0  0  0  0  0  0  0  0  0
    5.1128    2.1045    1.4485 C   0  0  2  0  0  0  0  0  0  0  0  0
    4.0986    3.2381    1.7233 C   0  0  2  0  0  0  0  0  0  0  0  0
    3.8171    4.0884    0.4683 C   0  0  1  0  0  0  0  0  0  0  0  0
    5.1224    4.5059   -0.2381 C   0  0  2  0  0  0  0  0  0  0  0  0
    6.0047    3.2591   -0.4774 C   0  0  3  0  0  0  0  0  0  0  0  0
    6.2774    2.5990    0.7656 O   0  0  0  0  0  0  0  0  0  0  0  0
    7.2614    3.6499   -1.0502 O   0  0  0  0  0  0  0  0  0  0  0  0
    7.2203    3.9005   -2.3827 C   0  0  0  0  0  0  0  0  0  0  0  0
    6.2314    3.7820   -3.0930 O   0  0  0  0  0  0  0  0  0  0  0  0
    8.5516    4.3931   -2.8563 C   0  0  0  0  0  0  0  0  0  0  0  0
    5.8552    5.5294    0.5248 N   0  0  0  0  0  0  0  0  0  0  0  0
    5.5844    6.8696    0.4043 C   0  0  0  0  0  0  0  0  0  0  0  0
    4.7719    7.2813   -0.4277 O   0  0  0  0  0  0  0  0  0  0  0  0
    6.2911    7.7274    1.2449 N   0  0  0  0  0  0  0  0  0  0  0  0
    6.0875    9.1705    1.1046 C   0  0  0  0  0  0  0  0  0  0  0  0
    4.7191    9.6477    1.5906 C   0  0  0  0  0  0  0  0  0  0  0  0
    4.5441    9.4882    3.3565 Cl  0  0  0  0  0  0  0  0  0  0  0  0
    7.1932    7.2060    2.1824 N   0  0  0  0  0  0  0  0  0  0  0  0
    7.7488    8.0535    2.8873 O   0  0  0  0  0  0  0  0  0  0  0  0
    3.0143    3.3529   -0.4833 O   0  0  0  0  0  0  0  0  0  0  0  0
    1.6778    3.3185   -0.2263 C   0  0  0  0  0  0  0  0  0  0  0  0
    1.1404    3.8332    0.7423 O   0  0  0  0  0  0  0  0  0  0  0  0
    0.9483    2.5376   -1.2756 C   0  0  0  0  0  0  0  0  0  0  0  0
    4.6478    4.1392    2.7187 O   0  0  0  0  0  0  0  0  0  0  0  0
    4.4655    3.7725    4.0165 C   0  0  0  0  0  0  0  0  0  0  0  0
    3.9461    2.7308    4.3870 O   0  0  0  0  0  0  0  0  0  0  0  0
    5.0084    4.8342    4.9214 C   0  0  0  0  0  0  0  0  0  0  0  0
    2.6044   -1.7133    3.8601 H   0  0  0  0  0  0  0  0  0  0  0  0
    1.6716   -1.3105    2.4086 H   0  0  0  0  0  0  0  0  0  0  0  0
    1.9404   -0.0717    3.6824 H   0  0  0  0  0  0  0  0  0  0  0  0
    4.1565    1.1240   -0.2682 H   0  0  0  0  0  0  0  0  0  0  0  0
    5.2570    0.0988    0.5967 H   0  0  0  0  0  0  0  0  0  0  0  0
    5.4909    1.7543    2.4155 H   0  0  0  0  0  0  0  0  0  0  0  0
    3.1583    2.8221    2.1012 H   0  0  0  0  0  0  0  0  0  0  0  0
    3.2839    5.0043    0.7570 H   0  0  0  0  0  0  0  0  0  0  0  0
    4.8696    4.9497   -1.2086 H   0  0  0  0  0  0  0  0  0  0  0  0
    5.5149    2.5432   -1.1464 H   0  0  0  0  0  0  0  0  0  0  0  0
    9.3475    3.7572   -2.4598 H   0  0  0  0  0  0  0  0  0  0  0  0
    8.6933    5.4280   -2.5350 H   0  0  0  0  0  0  0  0  0  0  0  0
    8.5898    4.3424   -3.9480 H   0  0  0  0  0  0  0  0  0  0  0  0
    6.3493    5.2020    1.3483 H   0  0  0  0  0  0  0  0  0  0  0  0
    6.1641    9.4006    0.0335 H   0  0  0  0  0  0  0  0  0  0  0  0
    6.8882    9.7405    1.5895 H   0  0  0  0  0  0  0  0  0  0  0  0
    3.8986    9.0913    1.1305 H   0  0  0  0  0  0  0  0  0  0  0  0
    4.5872   10.7063    1.3453 H   0  0  0  0  0  0  0  0  0  0  0  0
    0.4554    1.6804   -0.8103 H   0  0  0  0  0  0  0  0  0  0  0  0
    1.6411    2.1676   -2.0360 H   0  0  0  0  0  0  0  0  0  0  0  0
    0.2153    3.1838   -1.7632 H   0  0  0  0  0  0  0  0  0  0  0  0
    4.5847    5.8051    4.6493 H   0  0  0  0  0  0  0  0  0  0  0  0
    6.0975    4.8580    4.8452 H   0  0  0  0  0  0  0  0  0  0  0  0
    4.7234    4.6134    5.9534 H   0  0  0  0  0  0  0  0  0  0  0  0
  1  2  1  0  0  0  0
  1 33  1  0  0  0  0
  1 34  1  0  0  0  0
  1 35  1  0  0  0  0
  2  3  2  0  0  0  0
  2  4  1  0  0  0  0
  4  5  1  0  0  0  0
  5  6  1  0  0  0  0
  5 36  1  0  0  0  0
  5 37  1  0  0  0  0
  6  7  1  0  0  0  0
  6 11  1  0  0  0  0
  6 38  1  1  0  0  0
  7  8  1  0  0  0  0
  7 29  1  0  0  0  0
  7 39  1  1  0  0  0
  8  9  1  0  0  0  0
  8 25  1  0  0  0  0
  8 40  1  1  0  0  0
  9 10  1  0  0  0  0
  9 16  1  0  0  0  0
  9 41  1  6  0  0  0
 10 11  1  0  0  0  0
 10 12  1  0  0  0  0
 10 42  1  0  0  0  0
 12 13  1  0  0  0  0
 13 14  2  0  0  0  0
 13 15  1  0  0  0  0
 15 43  1  0  0  0  0
 15 44  1  0  0  0  0
 15 45  1  0  0  0  0
 16 17  1  0  0  0  0
 16 46  1  0  0  0  0
 17 18  2  0  0  0  0
 17 19  1  0  0  0  0
 19 20  1  0  0  0  0
 19 23  1  0  0  0  0
 20 21  1  0  0  0  0
 20 47  1  0  0  0  0
 20 48  1  0  0  0  0
 21 22  1  0  0  0  0
 21 49  1  0  0  0  0
 21 50  1  0  0  0  0
 23 24  2  0  0  0  0
 25 26  1  0  0  0  0
 26 27  2  0  0  0  0
 26 28  1  0  0  0  0
 28 51  1  0  0  0  0
 28 52  1  0  0  0  0
 28 53  1  0  0  0  0
 29 30  1  0  0  0  0
 30 31  2  0  0  0  0
 30 32  1  0  0  0  0
 32 54  1  0  0  0  0
 32 55  1  0  0  0  0
 32 56  1  0  0  0  0
M  END
