
 OpenBabel10072619513D

 40 41  0  0  0  0  0  0  0  0999 V2000
    1.3440   -0.1184    0.0263 C   0  0  0  0  0  0  0  0  0  0  0  0
    0.6907    0.1200   -1.1813 C   0  0  0  0  0  0  0  0  0  0  0  0
   -0.6979    0.2575   -1.2105 C   0  0  0  0  0  0  0  0  0  0  0  0
   -1.4457    0.1585   -0.0295 C   0  0  0  0  0  0  0  0  0  0  0  0
   -0.7803   -0.0882    1.1788 C   0  0  0  0  0  0  0  0  0  0  0  0
    0.6087   -0.2234    1.2053 C   0  0  0  0  0  0  0  0  0  0  0  0
   -2.9472    0.2855   -0.0635 C   0  0  0  0  0  0  0  0  0  0  0  0
   -3.6251   -1.0148   -0.4910 C   0  0  0  0  0  0  0  0  0  0  0  0
   -5.0723   -0.8877   -0.4839 N   0  0  0  0  0  0  0  0  0  0  0  0
   -5.8468   -2.0146   -0.6168 C   0  0  0  0  0  0  0  0  0  0  0  0
   -5.4121   -3.1545   -0.6740 O   0  0  0  0  0  0  0  0  0  0  0  0
   -7.1780   -1.6807   -0.6759 N   0  0  0  0  0  0  0  0  0  0  0  0
   -8.1743   -2.7368   -0.7297 C   0  0  0  0  0  0  0  0  0  0  0  0
   -9.5603   -2.1839   -1.0566 C   0  0  0  0  0  0  0  0  0  0  0  0
  -10.5990   -3.2726   -1.1464 C   0  0  0  0  0  0  0  0  0  0  0  0
  -11.1716   -3.8054    0.0167 C   0  0  0  0  0  0  0  0  0  0  0  0
  -12.1163   -4.8295   -0.0660 C   0  0  0  0  0  0  0  0  0  0  0  0
  -12.4968   -5.3305   -1.3094 C   0  0  0  0  0  0  0  0  0  0  0  0
  -11.9315   -4.8090   -2.4714 C   0  0  0  0  0  0  0  0  0  0  0  0
  -10.9849   -3.7862   -2.3916 C   0  0  0  0  0  0  0  0  0  0  0  0
    2.4253   -0.2262    0.0480 H   0  0  0  0  0  0  0  0  0  0  0  0
    1.2631    0.1974   -2.1018 H   0  0  0  0  0  0  0  0  0  0  0  0
   -1.1928    0.4408   -2.1618 H   0  0  0  0  0  0  0  0  0  0  0  0
   -1.3386   -0.1778    2.1083 H   0  0  0  0  0  0  0  0  0  0  0  0
    1.1169   -0.4135    2.1470 H   0  0  0  0  0  0  0  0  0  0  0  0
   -3.2260    1.0980   -0.7471 H   0  0  0  0  0  0  0  0  0  0  0  0
   -3.3184    0.5941    0.9223 H   0  0  0  0  0  0  0  0  0  0  0  0
   -3.3430   -1.8391    0.1751 H   0  0  0  0  0  0  0  0  0  0  0  0
   -3.3256   -1.2994   -1.5069 H   0  0  0  0  0  0  0  0  0  0  0  0
   -5.4572   -0.0870   -0.9640 H   0  0  0  0  0  0  0  0  0  0  0  0
   -7.4057   -0.8741   -0.1127 H   0  0  0  0  0  0  0  0  0  0  0  0
   -8.1709   -3.2410    0.2442 H   0  0  0  0  0  0  0  0  0  0  0  0
   -7.8619   -3.4742   -1.4791 H   0  0  0  0  0  0  0  0  0  0  0  0
   -9.5257   -1.6217   -1.9988 H   0  0  0  0  0  0  0  0  0  0  0  0
   -9.8654   -1.4555   -0.2941 H   0  0  0  0  0  0  0  0  0  0  0  0
  -10.8836   -3.4274    0.9952 H   0  0  0  0  0  0  0  0  0  0  0  0
  -12.5544   -5.2380    0.8407 H   0  0  0  0  0  0  0  0  0  0  0  0
  -13.2314   -6.1291   -1.3727 H   0  0  0  0  0  0  0  0  0  0  0  0
  -12.2256   -5.2009   -3.4414 H   0  0  0  0  0  0  0  0  0  0  0  0
  -10.5505   -3.3943   -3.3089 H   0  0  0  0  0  0  0  0  0  0  0  0
  1  2  2  0  0  0  0
  1  6  1  0  0  0  0
  1 21  1  0  0  0  0
  2  3  1  0  0  0  0
  2 22  1  0  0  0  0
  3  4  2  0  0  0  0
  3 23  1  0  0  0  0
  4  5  1  0  0  0  0
  4  7  1  0  0  0  0
  5  6  2  0  0  0  0
  5 24  1  0  0  0  0
  6 25  1  0  0  0  0
  7  8  1  0  0  0  0
  7 26  1  0  0  0  0
  7 27  1  0  0  0  0
  8  9  1  0  0  0  0
  8 28  1  0  0  0  0
  8 29  1  0  0  0  0
  9 10  1  0  0  0  0
  9 30  1  0  0  0  0
 10 11  2  0  0  0  0
 10 12  1  0  0  0  0
 12 13  1  0  0  0  0
 12 31  1  0  0  0  0
 13 14  1  0  0  0  0
 13 32  1  0  0  0  0
 13 33  1  0  0  0  0
 14 15  1  0  0  0  0
 14 34  1  0  0  0  0
 14 35  1  0  0  0  0
 15 16  2  0  0  0  0
 15 20  1  0  0  0  0
 16 17  1  0  0  0  0
 16 36  1  0  0  0  0
 17 18  2  0  0  0  0
 17 37  1  0  0  0  0
 18 19  1  0  0  0  0
 18 38  1  0  0  0  0
 19 20  2  0  0  0  0
 19 39  1  0  0  0  0
 20 40  1  0  0  0  0
M  END
