
 OpenBabel10072619503D

 72 75  0  0  1  0  0  0  0  0999 V2000
   -1.3556   -0.9384    2.7325 C   0  0  0  0  0  0  0  0  0  0  0  0
   -0.6183   -0.7158    1.4139 C   0  0  3  0  0  0  0  0  0  0  0  0
    0.2190    0.5694    1.4643 C   0  0  0  0  0  0  0  0  0  0  0  0
    0.9909    0.7669    0.1572 C   0  0  0  0  0  0  0  0  0  0  0  0
    1.8479   -0.4105   -0.0740 N   0  0  0  0  0  0  0  0  0  0  0  0
    1.0936   -1.6680   -0.2054 C   0  0  0  0  0  0  0  0  0  0  0  0
    0.2868   -1.9130    1.0781 C   0  0  0  0  0  0  0  0  0  0  0  0
    2.8979   -0.1655   -0.9850 C   0  0  0  0  0  0  0  0  0  0  0  0
    2.8816   -0.6283   -2.3192 C   0  0  0  0  0  0  0  0  0  0  0  0
    3.9240   -0.3692   -3.2377 C   0  0  0  0  0  0  0  0  0  0  0  0
    4.9848    0.4230   -2.7690 C   0  0  0  0  0  0  0  0  0  0  0  0
    5.0633    0.8798   -1.4505 C   0  0  0  0  0  0  0  0  0  0  0  0
    4.0337    0.5696   -0.5567 C   0  0  0  0  0  0  0  0  0  0  0  0
    4.1807    1.0440    0.8288 C   0  0  0  0  0  0  0  0  0  0  0  0
    4.3079    0.2653    1.9288 C   0  0  0  0  0  0  0  0  0  0  0  0
    4.4041   -1.1562    1.8168 C   0  0  0  0  0  0  0  0  0  0  0  0
    4.5250   -2.3119    1.7608 N   0  0  0  0  0  0  0  0  0  0  0  0
    4.4279    0.8563    3.2426 C   0  0  0  0  0  0  0  0  0  0  0  0
    4.9984    2.0622    3.4250 N   0  0  0  0  0  0  0  0  0  0  0  0
    4.9349    2.2852    4.7504 N   0  0  0  0  0  0  0  0  0  0  0  0
    4.3314    1.2623    5.4391 C   0  0  0  0  0  0  0  0  0  0  0  0
    3.9642    0.3399    4.4882 C   0  0  0  0  0  0  0  0  0  0  0  0
    3.2273   -0.8555    4.7462 C   0  0  0  0  0  0  0  0  0  0  0  0
    2.6102   -1.8077    4.9961 N   0  0  0  0  0  0  0  0  0  0  0  0
    4.1464    1.2928    6.7884 N   0  0  0  0  0  0  0  0  0  0  0  0
    5.3862    3.5702    5.2628 C   0  0  0  0  0  0  0  0  0  0  0  0
    4.2110    4.5009    5.5350 C   0  0  0  0  0  0  0  0  0  0  0  0
    3.5876    4.2018    6.7819 O   0  0  0  0  0  0  0  0  0  0  0  0
    6.0206    0.8749   -3.6782 N   0  3  0  0  0  0  0  0  0  0  0  0
    5.6878    1.6362   -4.5984 O   0  0  0  0  0  0  0  0  0  0  0  0
    7.1809    0.5113   -3.4352 O   0  5  0  0  0  0  0  0  0  0  0  0
    3.8890   -0.9266   -4.5021 N   0  0  0  0  0  0  0  0  0  0  0  0
    2.7484   -0.7498   -5.3954 C   0  0  0  0  0  0  0  0  0  0  0  0
    2.1646   -2.1132   -5.7658 C   0  0  0  0  0  0  0  0  0  0  0  0
    3.2528   -3.0499   -6.3166 C   0  0  3  0  0  0  0  0  0  0  0  0
    4.4014   -3.1733   -5.3049 C   0  0  0  0  0  0  0  0  0  0  0  0
    4.9741   -1.7986   -4.9569 C   0  0  0  0  0  0  0  0  0  0  0  0
    2.6873   -4.4247   -6.6487 C   0  0  0  0  0  0  0  0  0  0  0  0
   -2.0081   -0.0902    2.9637 H   0  0  0  0  0  0  0  0  0  0  0  0
   -0.6555   -1.0604    3.5649 H   0  0  0  0  0  0  0  0  0  0  0  0
   -1.9804   -1.8355    2.6804 H   0  0  0  0  0  0  0  0  0  0  0  0
   -1.3704   -0.6107    0.6195 H   0  0  0  0  0  0  0  0  0  0  0  0
    0.9234    0.5191    2.3064 H   0  0  0  0  0  0  0  0  0  0  0  0
   -0.4295    1.4341    1.6429 H   0  0  0  0  0  0  0  0  0  0  0  0
    1.5711    1.6925    0.2420 H   0  0  0  0  0  0  0  0  0  0  0  0
    0.2933    0.8964   -0.6807 H   0  0  0  0  0  0  0  0  0  0  0  0
    1.7751   -2.5149   -0.3540 H   0  0  0  0  0  0  0  0  0  0  0  0
    0.4107   -1.6193   -1.0635 H   0  0  0  0  0  0  0  0  0  0  0  0
    0.9776   -2.0986    1.9125 H   0  0  0  0  0  0  0  0  0  0  0  0
   -0.3194   -2.8187    0.9579 H   0  0  0  0  0  0  0  0  0  0  0  0
    2.0431   -1.2282   -2.6621 H   0  0  0  0  0  0  0  0  0  0  0  0
    5.9229    1.4633   -1.1240 H   0  0  0  0  0  0  0  0  0  0  0  0
    4.1582    2.1269    0.9310 H   0  0  0  0  0  0  0  0  0  0  0  0
    4.7333    1.8689    7.3896 H   0  0  0  0  0  0  0  0  0  0  0  0
    3.8495    0.4465    7.2746 H   0  0  0  0  0  0  0  0  0  0  0  0
    6.0440    4.0028    4.5015 H   0  0  0  0  0  0  0  0  0  0  0  0
    5.9773    3.3742    6.1641 H   0  0  0  0  0  0  0  0  0  0  0  0
    3.4540    4.4605    4.7440 H   0  0  0  0  0  0  0  0  0  0  0  0
    4.5725    5.5310    5.6063 H   0  0  0  0  0  0  0  0  0  0  0  0
    3.1476    3.3311    6.6842 H   0  0  0  0  0  0  0  0  0  0  0  0
    3.0920   -0.2416   -6.3056 H   0  0  0  0  0  0  0  0  0  0  0  0
    1.9744   -0.1089   -4.9569 H   0  0  0  0  0  0  0  0  0  0  0  0
    1.3727   -1.9787   -6.5107 H   0  0  0  0  0  0  0  0  0  0  0  0
    1.7014   -2.5619   -4.8780 H   0  0  0  0  0  0  0  0  0  0  0  0
    3.6523   -2.6118   -7.2412 H   0  0  0  0  0  0  0  0  0  0  0  0
    5.1984   -3.8082   -5.7104 H   0  0  0  0  0  0  0  0  0  0  0  0
    4.0393   -3.6588   -4.3878 H   0  0  0  0  0  0  0  0  0  0  0  0
    5.4547   -1.3587   -5.8399 H   0  0  0  0  0  0  0  0  0  0  0  0
    5.7512   -1.9272   -4.1928 H   0  0  0  0  0  0  0  0  0  0  0  0
    2.2602   -4.9048   -5.7632 H   0  0  0  0  0  0  0  0  0  0  0  0
    3.4727   -5.0765   -7.0438 H   0  0  0  0  0  0  0  0  0  0  0  0
    1.9040   -4.3457   -7.4065 H   0  0  0  0  0  0  0  0  0  0  0  0
  1  2  1  0  0  0  0
  1 39  1  0  0  0  0
  1 40  1  0  0  0  0
  1 41  1  0  0  0  0
  2  3  1  0  0  0  0
  2  7  1  0  0  0  0
  2 42  1  0  0  0  0
  3  4  1  0  0  0  0
  3 43  1  0  0  0  0
  3 44  1  0  0  0  0
  4  5  1  0  0  0  0
  4 45  1  0  0  0  0
  4 46  1  0  0  0  0
  5  6  1  0  0  0  0
  5  8  1  0  0  0  0
  6  7  1  0  0  0  0
  6 47  1  0  0  0  0
  6 48  1  0  0  0  0
  7 49  1  0  0  0  0
  7 50  1  0  0  0  0
  8  9  2  0  0  0  0
  8 13  1  0  0  0  0
  9 10  1  0  0  0  0
  9 51  1  0  0  0  0
 10 11  2  0  0  0  0
 10 32  1  0  0  0  0
 11 12  1  0  0  0  0
 11 29  1  0  0  0  0
 12 13  2  0  0  0  0
 12 52  1  0  0  0  0
 13 14  1  0  0  0  0
 14 15  2  0  0  0  0
 14 53  1  0  0  0  0
 15 16  1  0  0  0  0
 15 18  1  0  0  0  0
 16 17  3  0  0  0  0
 18 19  2  0  0  0  0
 18 22  1  0  0  0  0
 19 20  1  0  0  0  0
 20 21  1  0  0  0  0
 20 26  1  0  0  0  0
 21 22  2  0  0  0  0
 21 25  1  0  0  0  0
 22 23  1  0  0  0  0
 23 24  3  0  0  0  0
 25 54  1  0  0  0  0
 25 55  1  0  0  0  0
 26 27  1  0  0  0  0
 26 56  1  0  0  0  0
 26 57  1  0  0  0  0
 27 28  1  0  0  0  0
 27 58  1  0  0  0  0
 27 59  1  0  0  0  0
 28 60  1  0  0  0  0
 29 30  2  0  0  0  0
 29 31  1  0  0  0  0
 32 33  1  0  0  0  0
 32 37  1  0  0  0  0
 33 34  1  0  0  0  0
 33 61  1  0  0  0  0
 33 62  1  0  0  0  0
 34 35  1  0  0  0  0
 34 63  1  0  0  0  0
 34 64  1  0  0  0  0
 35 36  1  0  0  0  0
 35 38  1  0  0  0  0
 35 65  1  0  0  0  0
 36 37  1  0  0  0  0
 36 66  1  0  0  0  0
 36 67  1  0  0  0  0
 37 68  1  0  0  0  0
 37 69  1  0  0  0  0
 38 70  1  0  0  0  0
 38 71  1  0  0  0  0
 38 72  1  0  0  0  0
M  CHG  2  29   1  31  -1
M  END
