
 OpenBabel10072619583D

 46 49  0  0  0  0  0  0  0  0999 V2000
    1.0695   -3.4514   -1.8626 C   0  0  0  0  0  0  0  0  0  0  0  0
    0.6046   -2.1134   -2.3584 C   0  0  0  0  0  0  0  0  0  0  0  0
   -0.5042   -1.9911   -3.1009 C   0  0  0  0  0  0  0  0  0  0  0  0
   -1.0079   -0.7034   -3.6020 C   0  0  0  0  0  0  0  0  0  0  0  0
   -2.0221   -0.6575   -4.2938 O   0  0  0  0  0  0  0  0  0  0  0  0
   -0.2931    0.4278   -3.2558 O   0  0  0  0  0  0  0  0  0  0  0  0
    0.8616    0.3394   -2.4508 C   0  0  0  0  0  0  0  0  0  0  0  0
    1.3477   -0.8950   -2.0164 C   0  0  0  0  0  0  0  0  0  0  0  0
    2.5229   -0.8957   -1.2581 C   0  0  0  0  0  0  0  0  0  0  0  0
    3.1523    0.3087   -0.9217 C   0  0  0  0  0  0  0  0  0  0  0  0
    2.6103    1.5416   -1.3051 C   0  0  0  0  0  0  0  0  0  0  0  0
    1.4767    1.5494   -2.1143 C   0  0  0  0  0  0  0  0  0  0  0  0
    3.2918    2.6987   -0.8642 N   0  0  0  0  0  0  0  0  0  0  0  0
    2.8233    3.9999   -0.6114 C   0  0  0  0  0  0  0  0  0  0  0  0
    1.2124    4.4307   -0.4920 S   0  0  0  0  0  0  0  0  0  0  0  0
    3.9327    4.8140   -0.3599 N   0  0  0  0  0  0  0  0  0  0  0  0
    4.0958    6.1771    0.0054 C   0  0  0  0  0  0  0  0  0  0  0  0
    3.1090    7.1543   -0.1694 C   0  0  0  0  0  0  0  0  0  0  0  0
    3.3404    8.4854    0.1900 C   0  0  0  0  0  0  0  0  0  0  0  0
    4.5684    8.8683    0.7124 C   0  0  0  0  0  0  0  0  0  0  0  0
    5.5717    7.9165    0.8787 C   0  0  0  0  0  0  0  0  0  0  0  0
    5.3576    6.5694    0.5326 C   0  0  0  0  0  0  0  0  0  0  0  0
    6.4520    5.6032    0.7545 C   0  0  0  0  0  0  0  0  0  0  0  0
    6.3850    4.6686    1.8019 C   0  0  0  0  0  0  0  0  0  0  0  0
    7.3982    3.7223    1.9789 C   0  0  0  0  0  0  0  0  0  0  0  0
    8.4917    3.7022    1.1153 C   0  0  0  0  0  0  0  0  0  0  0  0
    8.5761    4.6292    0.0776 C   0  0  0  0  0  0  0  0  0  0  0  0
    7.5619    5.5735   -0.1032 C   0  0  0  0  0  0  0  0  0  0  0  0
    0.3680   -4.2479   -2.1353 H   0  0  0  0  0  0  0  0  0  0  0  0
    1.1497   -3.4552   -0.7704 H   0  0  0  0  0  0  0  0  0  0  0  0
    2.0437   -3.7107   -2.2914 H   0  0  0  0  0  0  0  0  0  0  0  0
   -1.1072   -2.8489   -3.3783 H   0  0  0  0  0  0  0  0  0  0  0  0
    2.9630   -1.8219   -0.8998 H   0  0  0  0  0  0  0  0  0  0  0  0
    4.0566    0.2646   -0.3169 H   0  0  0  0  0  0  0  0  0  0  0  0
    1.0612    2.4686   -2.5121 H   0  0  0  0  0  0  0  0  0  0  0  0
    4.1883    2.5031   -0.4393 H   0  0  0  0  0  0  0  0  0  0  0  0
    4.8145    4.3188   -0.4025 H   0  0  0  0  0  0  0  0  0  0  0  0
    2.1535    6.9328   -0.6252 H   0  0  0  0  0  0  0  0  0  0  0  0
    2.5539    9.2233    0.0464 H   0  0  0  0  0  0  0  0  0  0  0  0
    4.7464    9.9052    0.9837 H   0  0  0  0  0  0  0  0  0  0  0  0
    6.5280    8.2278    1.2954 H   0  0  0  0  0  0  0  0  0  0  0  0
    5.5359    4.6729    2.4848 H   0  0  0  0  0  0  0  0  0  0  0  0
    7.3347    3.0068    2.7945 H   0  0  0  0  0  0  0  0  0  0  0  0
    9.2812    2.9660    1.2515 H   0  0  0  0  0  0  0  0  0  0  0  0
    9.4310    4.6204   -0.5932 H   0  0  0  0  0  0  0  0  0  0  0  0
    7.6362    6.2830   -0.9263 H   0  0  0  0  0  0  0  0  0  0  0  0
  1  2  1  0  0  0  0
  1 29  1  0  0  0  0
  1 30  1  0  0  0  0
  1 31  1  0  0  0  0
  2  3  2  0  0  0  0
  2  8  1  0  0  0  0
  3  4  1  0  0  0  0
  3 32  1  0  0  0  0
  4  5  2  0  0  0  0
  4  6  1  0  0  0  0
  6  7  1  0  0  0  0
  7  8  2  0  0  0  0
  7 12  1  0  0  0  0
  8  9  1  0  0  0  0
  9 10  2  0  0  0  0
  9 33  1  0  0  0  0
 10 11  1  0  0  0  0
 10 34  1  0  0  0  0
 11 12  2  0  0  0  0
 11 13  1  0  0  0  0
 12 35  1  0  0  0  0
 13 14  1  0  0  0  0
 13 36  1  0  0  0  0
 14 15  2  0  0  0  0
 14 16  1  0  0  0  0
 16 17  1  0  0  0  0
 16 37  1  0  0  0  0
 17 18  2  0  0  0  0
 17 22  1  0  0  0  0
 18 19  1  0  0  0  0
 18 38  1  0  0  0  0
 19 20  2  0  0  0  0
 19 39  1  0  0  0  0
 20 21  1  0  0  0  0
 20 40  1  0  0  0  0
 21 22  2  0  0  0  0
 21 41  1  0  0  0  0
 22 23  1  0  0  0  0
 23 24  2  0  0  0  0
 23 28  1  0  0  0  0
 24 25  1  0  0  0  0
 24 42  1  0  0  0  0
 25 26  2  0  0  0  0
 25 43  1  0  0  0  0
 26 27  1  0  0  0  0
 26 44  1  0  0  0  0
 27 28  2  0  0  0  0
 27 45  1  0  0  0  0
 28 46  1  0  0  0  0
M  END
