
 OpenBabel10072619533D

 54 55  0  0  1  0  0  0  0  0999 V2000
    4.4383   -2.8099    1.4644 C   0  0  0  0  0  0  0  0  0  0  0  0
    3.4148   -1.7873    1.9329 C   0  0  0  0  0  0  0  0  0  0  0  0
    2.6032   -1.2291    0.7836 C   0  0  0  0  0  0  0  0  0  0  0  0
    1.3739   -1.8512    0.4994 C   0  0  0  0  0  0  0  0  0  0  0  0
    0.5804   -1.4200   -0.5581 C   0  0  0  0  0  0  0  0  0  0  0  0
    0.9947   -0.3480   -1.3398 C   0  0  0  0  0  0  0  0  0  0  0  0
    2.2141    0.3029   -1.0850 C   0  0  0  0  0  0  0  0  0  0  0  0
    3.0485   -0.1764   -0.0491 C   0  0  0  0  0  0  0  0  0  0  0  0
    4.2805    0.4599    0.2393 N   0  0  0  0  0  0  0  0  0  0  0  0
    5.3746    0.5871   -0.6171 C   0  0  0  0  0  0  0  0  0  0  0  0
    5.6180   -0.2856   -2.0328 S   0  0  0  0  0  0  0  0  0  0  0  0
    6.3094    1.5031   -0.0833 N   0  0  0  0  0  0  0  0  0  0  0  0
    7.7635    1.2306   -0.1152 C   0  0  0  0  0  0  0  0  0  0  0  0
    8.2833    0.5883    1.2006 C   0  0  0  0  0  0  0  0  0  0  0  0
    7.6546   -0.7025    1.5554 N   0  0  0  0  0  0  0  0  0  0  0  0
    8.1713   -1.7861    0.7111 C   0  0  0  0  0  0  0  0  0  0  0  0
    7.9037   -1.0301    2.9621 C   0  0  0  0  0  0  0  0  0  0  0  0
    5.8244    2.8522    0.3036 C   0  0  3  0  0  0  0  0  0  0  0  0
    6.5650    3.4905    1.4773 C   0  0  0  0  0  0  0  0  0  0  0  0
    5.8243    3.7627   -0.8954 C   0  0  0  0  0  0  0  0  0  0  0  0
    6.4730    3.7741   -2.1154 C   0  0  0  0  0  0  0  0  0  0  0  0
    5.9824    4.8953   -2.8272 C   0  0  0  0  0  0  0  0  0  0  0  0
    5.0746    5.5072   -1.9983 C   0  0  0  0  0  0  0  0  0  0  0  0
    4.9746    4.8340   -0.8242 O   0  0  0  0  0  0  0  0  0  0  0  0
    2.5341    1.5160   -1.9192 C   0  0  0  0  0  0  0  0  0  0  0  0
    5.0027   -3.1979    2.3184 H   0  0  0  0  0  0  0  0  0  0  0  0
    5.1487   -2.3709    0.7584 H   0  0  0  0  0  0  0  0  0  0  0  0
    3.9515   -3.6560    0.9669 H   0  0  0  0  0  0  0  0  0  0  0  0
    3.9006   -0.9826    2.4941 H   0  0  0  0  0  0  0  0  0  0  0  0
    2.7416   -2.2623    2.6579 H   0  0  0  0  0  0  0  0  0  0  0  0
    1.0305   -2.6881    1.1036 H   0  0  0  0  0  0  0  0  0  0  0  0
   -0.3669   -1.9106   -0.7651 H   0  0  0  0  0  0  0  0  0  0  0  0
    0.3483    0.0004   -2.1427 H   0  0  0  0  0  0  0  0  0  0  0  0
    4.6277    0.3440    1.1826 H   0  0  0  0  0  0  0  0  0  0  0  0
    8.2994    2.1677   -0.3009 H   0  0  0  0  0  0  0  0  0  0  0  0
    8.0129    0.5741   -0.9524 H   0  0  0  0  0  0  0  0  0  0  0  0
    8.0957    1.3000    2.0118 H   0  0  0  0  0  0  0  0  0  0  0  0
    9.3744    0.4794    1.1386 H   0  0  0  0  0  0  0  0  0  0  0  0
    7.9772   -1.6060   -0.3489 H   0  0  0  0  0  0  0  0  0  0  0  0
    7.6770   -2.7323    0.9571 H   0  0  0  0  0  0  0  0  0  0  0  0
    9.2514   -1.9236    0.8370 H   0  0  0  0  0  0  0  0  0  0  0  0
    7.4646   -0.2704    3.6187 H   0  0  0  0  0  0  0  0  0  0  0  0
    8.9742   -1.1090    3.1854 H   0  0  0  0  0  0  0  0  0  0  0  0
    7.4251   -1.9814    3.2241 H   0  0  0  0  0  0  0  0  0  0  0  0
    4.7753    2.7627    0.6095 H   0  0  0  0  0  0  0  0  0  0  0  0
    7.6127    3.7022    1.2428 H   0  0  0  0  0  0  0  0  0  0  0  0
    6.5317    2.8417    2.3578 H   0  0  0  0  0  0  0  0  0  0  0  0
    6.1026    4.4434    1.7596 H   0  0  0  0  0  0  0  0  0  0  0  0
    7.1905    3.0444   -2.4640 H   0  0  0  0  0  0  0  0  0  0  0  0
    6.2494    5.2102   -3.8259 H   0  0  0  0  0  0  0  0  0  0  0  0
    4.4425    6.3794   -2.0933 H   0  0  0  0  0  0  0  0  0  0  0  0
    1.6141    2.0547   -2.1741 H   0  0  0  0  0  0  0  0  0  0  0  0
    3.0265    1.2296   -2.8525 H   0  0  0  0  0  0  0  0  0  0  0  0
    3.1574    2.2307   -1.3761 H   0  0  0  0  0  0  0  0  0  0  0  0
  1  2  1  0  0  0  0
  1 26  1  0  0  0  0
  1 27  1  0  0  0  0
  1 28  1  0  0  0  0
  2  3  1  0  0  0  0
  2 29  1  0  0  0  0
  2 30  1  0  0  0  0
  3  4  2  0  0  0  0
  3  8  1  0  0  0  0
  4  5  1  0  0  0  0
  4 31  1  0  0  0  0
  5  6  2  0  0  0  0
  5 32  1  0  0  0  0
  6  7  1  0  0  0  0
  6 33  1  0  0  0  0
  7  8  2  0  0  0  0
  7 25  1  0  0  0  0
  8  9  1  0  0  0  0
  9 10  1  0  0  0  0
  9 34  1  0  0  0  0
 10 11  2  0  0  0  0
 10 12  1  0  0  0  0
 12 13  1  0  0  0  0
 12 18  1  0  0  0  0
 13 14  1  0  0  0  0
 13 35  1  0  0  0  0
 13 36  1  0  0  0  0
 14 15  1  0  0  0  0
 14 37  1  0  0  0  0
 14 38  1  0  0  0  0
 15 16  1  0  0  0  0
 15 17  1  0  0  0  0
 16 39  1  0  0  0  0
 16 40  1  0  0  0  0
 16 41  1  0  0  0  0
 17 42  1  0  0  0  0
 17 43  1  0  0  0  0
 17 44  1  0  0  0  0
 18 19  1  0  0  0  0
 18 20  1  0  0  0  0
 18 45  1  0  0  0  0
 19 46  1  0  0  0  0
 19 47  1  0  0  0  0
 19 48  1  0  0  0  0
 20 21  2  0  0  0  0
 20 24  1  0  0  0  0
 21 22  1  0  0  0  0
 21 49  1  0  0  0  0
 22 23  2  0  0  0  0
 22 50  1  0  0  0  0
 23 24  1  0  0  0  0
 23 51  1  0  0  0  0
 25 52  1  0  0  0  0
 25 53  1  0  0  0  0
 25 54  1  0  0  0  0
M  END
