
 OpenBabel10072620213D

 69 72  0  0  0  0  0  0  0  0999 V2000
    4.8573   -0.5152   -2.2596 C   0  0  0  0  0  0  0  0  0  0  0  0
    4.0434   -1.4597   -1.3775 C   0  0  0  0  0  0  0  0  0  0  0  0
    3.3575   -0.7973   -0.2591 N   0  0  0  0  0  0  0  0  0  0  0  0
    2.4552    0.2968   -0.6624 C   0  0  0  0  0  0  0  0  0  0  0  0
    1.3297   -0.0633   -1.6306 C   0  0  0  0  0  0  0  0  0  0  0  0
    2.6521   -1.7549    0.6168 C   0  0  0  0  0  0  0  0  0  0  0  0
    3.5411   -2.7288    1.3633 C   0  0  0  0  0  0  0  0  0  0  0  0
    4.1797   -2.3973    2.5636 C   0  0  0  0  0  0  0  0  0  0  0  0
    4.8832   -3.3623    3.2869 C   0  0  0  0  0  0  0  0  0  0  0  0
    4.9890   -4.6689    2.8010 C   0  0  0  0  0  0  0  0  0  0  0  0
    4.3900   -5.0250    1.5899 C   0  0  0  0  0  0  0  0  0  0  0  0
    3.6893   -4.0420    0.8748 C   0  0  0  0  0  0  0  0  0  0  0  0
    4.4486   -6.3208    1.0584 N   0  0  0  0  0  0  0  0  0  0  0  0
    4.4106   -7.5816    1.6633 C   0  0  0  0  0  0  0  0  0  0  0  0
    4.9117   -8.6013    0.9482 N   0  0  0  0  0  0  0  0  0  0  0  0
    4.8152   -9.8252    1.4845 C   0  0  0  0  0  0  0  0  0  0  0  0
    4.2636  -10.1110    2.6788 N   0  0  0  0  0  0  0  0  0  0  0  0
    3.7591   -9.0714    3.3677 C   0  0  0  0  0  0  0  0  0  0  0  0
    3.8132   -7.7778    2.8929 C   0  0  0  0  0  0  0  0  0  0  0  0
    3.1140   -9.3646    4.6881 C   0  0  0  0  0  0  0  0  0  0  0  0
    5.4085  -10.8535    0.7553 N   0  0  0  0  0  0  0  0  0  0  0  0
    5.0676  -12.0917    0.8880 C   0  0  0  0  0  0  0  0  0  0  0  0
    4.0730  -12.5887    1.6928 N   0  0  0  0  0  0  0  0  0  0  0  0
    5.6322  -13.1510    0.2250 N   0  0  0  0  0  0  0  0  0  0  0  0
    6.8881  -13.2743   -0.4162 C   0  0  0  0  0  0  0  0  0  0  0  0
    7.8666  -12.2826   -0.2576 C   0  0  0  0  0  0  0  0  0  0  0  0
    9.1109  -12.3867   -0.8671 C   0  0  0  0  0  0  0  0  0  0  0  0
    9.4054  -13.4875   -1.6633 C   0  0  0  0  0  0  0  0  0  0  0  0
    8.4634  -14.5229   -1.8599 C   0  0  0  0  0  0  0  0  0  0  0  0
    8.7517  -15.6644   -2.6489 C   0  0  0  0  0  0  0  0  0  0  0  0
    7.8301  -16.6899   -2.8331 C   0  0  0  0  0  0  0  0  0  0  0  0
    6.5834  -16.5916   -2.2468 C   0  0  0  0  0  0  0  0  0  0  0  0
    6.2590  -15.4658   -1.4856 C   0  0  0  0  0  0  0  0  0  0  0  0
    7.1825  -14.4144   -1.2429 C   0  0  0  0  0  0  0  0  0  0  0  0
   10.9761  -13.5025   -2.4019 Cl  0  0  0  0  0  0  0  0  0  0  0  0
    4.0706   -1.1511    3.1200 O   0  0  0  0  0  0  0  0  0  0  0  0
    4.9962   -0.2419    2.5168 C   0  0  0  0  0  0  0  0  0  0  0  0
    5.4579   -1.0969   -2.9677 H   0  0  0  0  0  0  0  0  0  0  0  0
    5.5434    0.0952   -1.6624 H   0  0  0  0  0  0  0  0  0  0  0  0
    4.2180    0.1502   -2.8470 H   0  0  0  0  0  0  0  0  0  0  0  0
    4.7628   -2.1839   -0.9800 H   0  0  0  0  0  0  0  0  0  0  0  0
    3.3376   -2.0222   -2.0002 H   0  0  0  0  0  0  0  0  0  0  0  0
    3.0445    1.1148   -1.0947 H   0  0  0  0  0  0  0  0  0  0  0  0
    2.0060    0.7361    0.2382 H   0  0  0  0  0  0  0  0  0  0  0  0
    1.7164   -0.4061   -2.5942 H   0  0  0  0  0  0  0  0  0  0  0  0
    0.7133    0.8209   -1.8252 H   0  0  0  0  0  0  0  0  0  0  0  0
    0.6702   -0.8368   -1.2258 H   0  0  0  0  0  0  0  0  0  0  0  0
    1.9065   -2.3189    0.0423 H   0  0  0  0  0  0  0  0  0  0  0  0
    2.0771   -1.2061    1.3758 H   0  0  0  0  0  0  0  0  0  0  0  0
    5.3492   -3.0951    4.2311 H   0  0  0  0  0  0  0  0  0  0  0  0
    5.5654   -5.3951    3.3679 H   0  0  0  0  0  0  0  0  0  0  0  0
    3.2046   -4.3187   -0.0602 H   0  0  0  0  0  0  0  0  0  0  0  0
    4.8837   -6.3863    0.1444 H   0  0  0  0  0  0  0  0  0  0  0  0
    3.3719   -6.9591    3.4471 H   0  0  0  0  0  0  0  0  0  0  0  0
    3.1014  -10.4410    4.8876 H   0  0  0  0  0  0  0  0  0  0  0  0
    2.0791   -9.0089    4.6948 H   0  0  0  0  0  0  0  0  0  0  0  0
    3.6646   -8.8752    5.4967 H   0  0  0  0  0  0  0  0  0  0  0  0
    3.7359  -11.8481    2.3132 H   0  0  0  0  0  0  0  0  0  0  0  0
    4.4016  -13.3534    2.2707 H   0  0  0  0  0  0  0  0  0  0  0  0
    5.0795  -13.9896    0.2532 H   0  0  0  0  0  0  0  0  0  0  0  0
    7.6864  -11.4105    0.3644 H   0  0  0  0  0  0  0  0  0  0  0  0
    9.8462  -11.6014   -0.7128 H   0  0  0  0  0  0  0  0  0  0  0  0
    9.7216  -15.7787   -3.1277 H   0  0  0  0  0  0  0  0  0  0  0  0
    8.0877  -17.5536   -3.4403 H   0  0  0  0  0  0  0  0  0  0  0  0
    5.8526  -17.3827   -2.3865 H   0  0  0  0  0  0  0  0  0  0  0  0
    5.2490  -15.4274   -1.0902 H   0  0  0  0  0  0  0  0  0  0  0  0
    5.5840    0.2264    3.3136 H   0  0  0  0  0  0  0  0  0  0  0  0
    4.4314    0.5436    2.0058 H   0  0  0  0  0  0  0  0  0  0  0  0
    5.6889   -0.7140    1.8082 H   0  0  0  0  0  0  0  0  0  0  0  0
  1  2  1  0  0  0  0
  1 38  1  0  0  0  0
  1 39  1  0  0  0  0
  1 40  1  0  0  0  0
  2  3  1  0  0  0  0
  2 41  1  0  0  0  0
  2 42  1  0  0  0  0
  3  4  1  0  0  0  0
  3  6  1  0  0  0  0
  4  5  1  0  0  0  0
  4 43  1  0  0  0  0
  4 44  1  0  0  0  0
  5 45  1  0  0  0  0
  5 46  1  0  0  0  0
  5 47  1  0  0  0  0
  6  7  1  0  0  0  0
  6 48  1  0  0  0  0
  6 49  1  0  0  0  0
  7  8  2  0  0  0  0
  7 12  1  0  0  0  0
  8  9  1  0  0  0  0
  8 36  1  0  0  0  0
  9 10  2  0  0  0  0
  9 50  1  0  0  0  0
 10 11  1  0  0  0  0
 10 51  1  0  0  0  0
 11 12  2  0  0  0  0
 11 13  1  0  0  0  0
 12 52  1  0  0  0  0
 13 14  1  0  0  0  0
 13 53  1  0  0  0  0
 14 15  2  0  0  0  0
 14 19  1  0  0  0  0
 15 16  1  0  0  0  0
 16 17  2  0  0  0  0
 16 21  1  0  0  0  0
 17 18  1  0  0  0  0
 18 19  2  0  0  0  0
 18 20  1  0  0  0  0
 19 54  1  0  0  0  0
 20 55  1  0  0  0  0
 20 56  1  0  0  0  0
 20 57  1  0  0  0  0
 21 22  2  0  0  0  0
 22 23  1  0  0  0  0
 22 24  1  0  0  0  0
 23 58  1  0  0  0  0
 23 59  1  0  0  0  0
 24 25  1  0  0  0  0
 24 60  1  0  0  0  0
 25 26  2  0  0  0  0
 25 34  1  0  0  0  0
 26 27  1  0  0  0  0
 26 61  1  0  0  0  0
 27 28  2  0  0  0  0
 27 62  1  0  0  0  0
 28 29  1  0  0  0  0
 28 35  1  0  0  0  0
 29 30  2  0  0  0  0
 29 34  1  0  0  0  0
 30 31  1  0  0  0  0
 30 63  1  0  0  0  0
 31 32  2  0  0  0  0
 31 64  1  0  0  0  0
 32 33  1  0  0  0  0
 32 65  1  0  0  0  0
 33 34  2  0  0  0  0
 33 66  1  0  0  0  0
 36 37  1  0  0  0  0
 37 67  1  0  0  0  0
 37 68  1  0  0  0  0
 37 69  1  0  0  0  0
M  END
