
 OpenBabel10072620223D

 90 91  0  0  0  0  0  0  0  0999 V2000
    2.9720    0.7838   -0.7071 C   0  0  0  0  0  0  0  0  0  0  0  0
    2.0439    0.9764    0.4553 C   0  0  0  0  0  0  0  0  0  0  0  0
    1.7074    2.2619    0.8964 C   0  0  0  0  0  0  0  0  0  0  0  0
    0.8368    2.4519    1.9781 C   0  0  0  0  0  0  0  0  0  0  0  0
    0.3046    1.3357    2.6558 C   0  0  0  0  0  0  0  0  0  0  0  0
    0.6290    0.0495    2.1877 C   0  0  0  0  0  0  0  0  0  0  0  0
    1.4926   -0.1280    1.1051 C   0  0  0  0  0  0  0  0  0  0  0  0
   -0.6326    1.5194    3.8442 C   0  0  0  0  0  0  0  0  0  0  0  0
   -2.0916    1.4584    3.3908 C   0  0  0  0  0  0  0  0  0  0  0  0
   -0.3829    0.5232    4.9815 C   0  0  0  0  0  0  0  0  0  0  0  0
    0.4452    3.6828    2.4411 O   0  0  0  0  0  0  0  0  0  0  0  0
    0.8910    4.8301    1.7221 C   0  0  0  0  0  0  0  0  0  0  0  0
    0.2276    6.0694    2.3132 C   0  0  0  0  0  0  0  0  0  0  0  0
    0.7454    7.2969    1.7342 N   0  0  0  0  0  0  0  0  0  0  0  0
    0.0332    8.4603    1.8842 C   0  0  0  0  0  0  0  0  0  0  0  0
   -1.0628    8.5376    2.4150 O   0  0  0  0  0  0  0  0  0  0  0  0
    0.7198    9.5241    1.3565 N   0  0  0  0  0  0  0  0  0  0  0  0
    0.1491   10.8559    1.3651 C   0  0  0  0  0  0  0  0  0  0  0  0
   -0.8985   11.0356    0.2651 C   0  0  0  0  0  0  0  0  0  0  0  0
   -1.5805   12.4061    0.3037 C   0  0  0  0  0  0  0  0  0  0  0  0
   -0.6632   13.5950    0.0052 C   0  0  0  0  0  0  0  0  0  0  0  0
   -0.0490   13.6079   -1.3959 C   0  0  0  0  0  0  0  0  0  0  0  0
   -1.0818   13.8398   -2.4995 C   0  0  0  0  0  0  0  0  0  0  0  0
   -0.4551   13.9745   -3.7976 N   0  0  0  0  0  0  0  0  0  0  0  0
    0.2059   15.1160   -4.1615 C   0  0  0  0  0  0  0  0  0  0  0  0
    0.3329   16.1004   -3.4455 O   0  0  0  0  0  0  0  0  0  0  0  0
    0.7313   15.0222   -5.4238 N   0  0  0  0  0  0  0  0  0  0  0  0
    1.6917   16.0137   -5.8862 C   0  0  0  0  0  0  0  0  0  0  0  0
    3.0987   15.7130   -5.3534 C   0  0  0  0  0  0  0  0  0  0  0  0
    3.5222   14.4656   -5.9198 O   0  0  0  0  0  0  0  0  0  0  0  0
    4.7254   13.9456   -5.5240 C   0  0  0  0  0  0  0  0  0  0  0  0
    5.0904   12.7096   -6.0940 C   0  0  0  0  0  0  0  0  0  0  0  0
    6.3185   12.1330   -5.7173 C   0  0  0  0  0  0  0  0  0  0  0  0
    7.1622   12.7588   -4.7981 C   0  0  0  0  0  0  0  0  0  0  0  0
    6.7980   13.9767   -4.2268 C   0  0  0  0  0  0  0  0  0  0  0  0
    5.5862   14.5724   -4.6094 C   0  0  0  0  0  0  0  0  0  0  0  0
    7.7116   14.6702   -3.2577 C   0  0  0  0  0  0  0  0  0  0  0  0
    4.2309   11.9570   -7.1062 C   0  0  0  0  0  0  0  0  0  0  0  0
    2.9211   11.4497   -6.4944 C   0  0  0  0  0  0  0  0  0  0  0  0
    3.9749   12.7540   -8.3895 C   0  0  0  0  0  0  0  0  0  0  0  0
    3.3230    1.7430   -1.1029 H   0  0  0  0  0  0  0  0  0  0  0  0
    2.4583    0.2555   -1.5164 H   0  0  0  0  0  0  0  0  0  0  0  0
    3.8504    0.2087   -0.3979 H   0  0  0  0  0  0  0  0  0  0  0  0
    2.1406    3.1075    0.3730 H   0  0  0  0  0  0  0  0  0  0  0  0
    0.2089   -0.8360    2.6585 H   0  0  0  0  0  0  0  0  0  0  0  0
    1.7310   -1.1359    0.7725 H   0  0  0  0  0  0  0  0  0  0  0  0
   -0.4579    2.5088    4.2839 H   0  0  0  0  0  0  0  0  0  0  0  0
   -2.3333    0.4889    2.9418 H   0  0  0  0  0  0  0  0  0  0  0  0
   -2.3062    2.2331    2.6469 H   0  0  0  0  0  0  0  0  0  0  0  0
   -2.7675    1.6153    4.2380 H   0  0  0  0  0  0  0  0  0  0  0  0
   -0.6544   -0.5000    4.7039 H   0  0  0  0  0  0  0  0  0  0  0  0
   -0.9817    0.7894    5.8589 H   0  0  0  0  0  0  0  0  0  0  0  0
    0.6698    0.5271    5.2831 H   0  0  0  0  0  0  0  0  0  0  0  0
    0.6164    4.7544    0.6632 H   0  0  0  0  0  0  0  0  0  0  0  0
    1.9800    4.9206    1.8129 H   0  0  0  0  0  0  0  0  0  0  0  0
    0.3902    6.1162    3.3958 H   0  0  0  0  0  0  0  0  0  0  0  0
   -0.8574    6.0192    2.1635 H   0  0  0  0  0  0  0  0  0  0  0  0
    1.7401    7.4434    1.8219 H   0  0  0  0  0  0  0  0  0  0  0  0
    1.3844    9.3036    0.6297 H   0  0  0  0  0  0  0  0  0  0  0  0
    0.9810   11.5545    1.2327 H   0  0  0  0  0  0  0  0  0  0  0  0
   -0.2977   11.0332    2.3502 H   0  0  0  0  0  0  0  0  0  0  0  0
   -1.6751   10.2689    0.3759 H   0  0  0  0  0  0  0  0  0  0  0  0
   -0.4432   10.8582   -0.7158 H   0  0  0  0  0  0  0  0  0  0  0  0
   -2.0217   12.5522    1.2979 H   0  0  0  0  0  0  0  0  0  0  0  0
   -2.4177   12.4045   -0.4037 H   0  0  0  0  0  0  0  0  0  0  0  0
    0.1478   13.6252    0.7411 H   0  0  0  0  0  0  0  0  0  0  0  0
   -1.2344   14.5217    0.1457 H   0  0  0  0  0  0  0  0  0  0  0  0
    0.5045   12.6829   -1.5931 H   0  0  0  0  0  0  0  0  0  0  0  0
    0.6962   14.4124   -1.4266 H   0  0  0  0  0  0  0  0  0  0  0  0
   -1.6582   14.7509   -2.3022 H   0  0  0  0  0  0  0  0  0  0  0  0
   -1.7804   13.0009   -2.5662 H   0  0  0  0  0  0  0  0  0  0  0  0
   -0.5815   13.2469   -4.4866 H   0  0  0  0  0  0  0  0  0  0  0  0
    0.8838   14.0879   -5.7708 H   0  0  0  0  0  0  0  0  0  0  0  0
    1.3709   17.0098   -5.5610 H   0  0  0  0  0  0  0  0  0  0  0  0
    1.6785   15.9737   -6.9808 H   0  0  0  0  0  0  0  0  0  0  0  0
    3.0721   15.6477   -4.2583 H   0  0  0  0  0  0  0  0  0  0  0  0
    3.7784   16.5129   -5.6716 H   0  0  0  0  0  0  0  0  0  0  0  0
    6.6296   11.1835   -6.1457 H   0  0  0  0  0  0  0  0  0  0  0  0
    8.1052   12.2827   -4.5394 H   0  0  0  0  0  0  0  0  0  0  0  0
    5.3368   15.5333   -4.1701 H   0  0  0  0  0  0  0  0  0  0  0  0
    8.3773   13.9606   -2.7542 H   0  0  0  0  0  0  0  0  0  0  0  0
    7.1316   15.1732   -2.4778 H   0  0  0  0  0  0  0  0  0  0  0  0
    8.3255   15.4123   -3.7769 H   0  0  0  0  0  0  0  0  0  0  0  0
    4.7885   11.0646   -7.4218 H   0  0  0  0  0  0  0  0  0  0  0  0
    2.2654   12.2673   -6.1817 H   0  0  0  0  0  0  0  0  0  0  0  0
    3.1175   10.8255   -5.6155 H   0  0  0  0  0  0  0  0  0  0  0  0
    2.3648   10.8423   -7.2177 H   0  0  0  0  0  0  0  0  0  0  0  0
    3.3067   13.6047   -8.2264 H   0  0  0  0  0  0  0  0  0  0  0  0
    3.5060   12.1163   -9.1482 H   0  0  0  0  0  0  0  0  0  0  0  0
    4.9137   13.1332   -8.8082 H   0  0  0  0  0  0  0  0  0  0  0  0
  1  2  1  0  0  0  0
  1 41  1  0  0  0  0
  1 42  1  0  0  0  0
  1 43  1  0  0  0  0
  2  3  2  0  0  0  0
  2  7  1  0  0  0  0
  3  4  1  0  0  0  0
  3 44  1  0  0  0  0
  4  5  2  0  0  0  0
  4 11  1  0  0  0  0
  5  6  1  0  0  0  0
  5  8  1  0  0  0  0
  6  7  2  0  0  0  0
  6 45  1  0  0  0  0
  7 46  1  0  0  0  0
  8  9  1  0  0  0  0
  8 10  1  0  0  0  0
  8 47  1  0  0  0  0
  9 48  1  0  0  0  0
  9 49  1  0  0  0  0
  9 50  1  0  0  0  0
 10 51  1  0  0  0  0
 10 52  1  0  0  0  0
 10 53  1  0  0  0  0
 11 12  1  0  0  0  0
 12 13  1  0  0  0  0
 12 54  1  0  0  0  0
 12 55  1  0  0  0  0
 13 14  1  0  0  0  0
 13 56  1  0  0  0  0
 13 57  1  0  0  0  0
 14 15  1  0  0  0  0
 14 58  1  0  0  0  0
 15 16  2  0  0  0  0
 15 17  1  0  0  0  0
 17 18  1  0  0  0  0
 17 59  1  0  0  0  0
 18 19  1  0  0  0  0
 18 60  1  0  0  0  0
 18 61  1  0  0  0  0
 19 20  1  0  0  0  0
 19 62  1  0  0  0  0
 19 63  1  0  0  0  0
 20 21  1  0  0  0  0
 20 64  1  0  0  0  0
 20 65  1  0  0  0  0
 21 22  1  0  0  0  0
 21 66  1  0  0  0  0
 21 67  1  0  0  0  0
 22 23  1  0  0  0  0
 22 68  1  0  0  0  0
 22 69  1  0  0  0  0
 23 24  1  0  0  0  0
 23 70  1  0  0  0  0
 23 71  1  0  0  0  0
 24 25  1  0  0  0  0
 24 72  1  0  0  0  0
 25 26  2  0  0  0  0
 25 27  1  0  0  0  0
 27 28  1  0  0  0  0
 27 73  1  0  0  0  0
 28 29  1  0  0  0  0
 28 74  1  0  0  0  0
 28 75  1  0  0  0  0
 29 30  1  0  0  0  0
 29 76  1  0  0  0  0
 29 77  1  0  0  0  0
 30 31  1  0  0  0  0
 31 32  2  0  0  0  0
 31 36  1  0  0  0  0
 32 33  1  0  0  0  0
 32 38  1  0  0  0  0
 33 34  2  0  0  0  0
 33 78  1  0  0  0  0
 34 35  1  0  0  0  0
 34 79  1  0  0  0  0
 35 36  2  0  0  0  0
 35 37  1  0  0  0  0
 36 80  1  0  0  0  0
 37 81  1  0  0  0  0
 37 82  1  0  0  0  0
 37 83  1  0  0  0  0
 38 39  1  0  0  0  0
 38 40  1  0  0  0  0
 38 84  1  0  0  0  0
 39 85  1  0  0  0  0
 39 86  1  0  0  0  0
 39 87  1  0  0  0  0
 40 88  1  0  0  0  0
 40 89  1  0  0  0  0
 40 90  1  0  0  0  0
M  END
