
 OpenBabel10072619433D

 32 33  0  0  0  0  0  0  0  0999 V2000
    1.1169   -0.8363   -0.5622 C   0  0  0  0  0  0  0  0  0  0  0  0
    2.4124   -0.2282   -0.0345 C   0  0  0  0  0  0  0  0  0  0  0  0
    2.1249    1.0199    0.7968 C   0  0  0  0  0  0  0  0  0  0  0  0
    3.1478   -1.2166    0.7432 N   0  0  0  0  0  0  0  0  0  0  0  0
    4.5084   -1.0957    0.9488 C   0  0  0  0  0  0  0  0  0  0  0  0
    5.1797   -0.2071    0.4433 O   0  0  0  0  0  0  0  0  0  0  0  0
    4.9628   -2.1121    1.7522 N   0  0  0  0  0  0  0  0  0  0  0  0
    6.2927   -2.2756    2.1709 C   0  0  0  0  0  0  0  0  0  0  0  0
    6.6791   -3.5719    2.0837 N   0  0  0  0  0  0  0  0  0  0  0  0
    7.9551   -3.8593    2.3998 C   0  0  0  0  0  0  0  0  0  0  0  0
    8.8682   -2.9215    2.8386 C   0  0  0  0  0  0  0  0  0  0  0  0
    8.4494   -1.5989    2.9994 C   0  0  0  0  0  0  0  0  0  0  0  0
    9.3449   -0.6344    3.4928 C   0  0  0  0  0  0  0  0  0  0  0  0
    8.9339    0.6791    3.7118 C   0  0  0  0  0  0  0  0  0  0  0  0
    7.6213    1.0434    3.4469 C   0  0  0  0  0  0  0  0  0  0  0  0
    6.7250    0.0973    2.9452 C   0  0  0  0  0  0  0  0  0  0  0  0
    7.1180   -1.2404    2.6803 C   0  0  0  0  0  0  0  0  0  0  0  0
    0.5693   -0.1149   -1.1780 H   0  0  0  0  0  0  0  0  0  0  0  0
    0.4611   -1.1554    0.2557 H   0  0  0  0  0  0  0  0  0  0  0  0
    1.3281   -1.7173   -1.1780 H   0  0  0  0  0  0  0  0  0  0  0  0
    3.0361    0.0618   -0.8885 H   0  0  0  0  0  0  0  0  0  0  0  0
    1.5164    0.7803    1.6753 H   0  0  0  0  0  0  0  0  0  0  0  0
    1.5879    1.7678    0.2046 H   0  0  0  0  0  0  0  0  0  0  0  0
    3.0521    1.4796    1.1539 H   0  0  0  0  0  0  0  0  0  0  0  0
    2.6486   -1.6930    1.4812 H   0  0  0  0  0  0  0  0  0  0  0  0
    4.5484   -3.0070    1.5375 H   0  0  0  0  0  0  0  0  0  0  0  0
    8.2381   -4.9013    2.2838 H   0  0  0  0  0  0  0  0  0  0  0  0
    9.8829   -3.2289    3.0698 H   0  0  0  0  0  0  0  0  0  0  0  0
   10.3754   -0.9017    3.7190 H   0  0  0  0  0  0  0  0  0  0  0  0
    9.6365    1.4150    4.0929 H   0  0  0  0  0  0  0  0  0  0  0  0
    7.2875    2.0629    3.6208 H   0  0  0  0  0  0  0  0  0  0  0  0
    5.7030    0.4194    2.7642 H   0  0  0  0  0  0  0  0  0  0  0  0
  1  2  1  0  0  0  0
  1 18  1  0  0  0  0
  1 19  1  0  0  0  0
  1 20  1  0  0  0  0
  2  3  1  0  0  0  0
  2  4  1  0  0  0  0
  2 21  1  0  0  0  0
  3 22  1  0  0  0  0
  3 23  1  0  0  0  0
  3 24  1  0  0  0  0
  4  5  1  0  0  0  0
  4 25  1  0  0  0  0
  5  6  2  0  0  0  0
  5  7  1  0  0  0  0
  7  8  1  0  0  0  0
  7 26  1  0  0  0  0
  8  9  2  0  0  0  0
  8 17  1  0  0  0  0
  9 10  1  0  0  0  0
 10 11  2  0  0  0  0
 10 27  1  0  0  0  0
 11 12  1  0  0  0  0
 11 28  1  0  0  0  0
 12 13  2  0  0  0  0
 12 17  1  0  0  0  0
 13 14  1  0  0  0  0
 13 29  1  0  0  0  0
 14 15  2  0  0  0  0
 14 30  1  0  0  0  0
 15 16  1  0  0  0  0
 15 31  1  0  0  0  0
 16 17  2  0  0  0  0
 16 32  1  0  0  0  0
M  END
