
 OpenBabel10072620113D

 28 28  0  0  0  0  0  0  0  0999 V2000
    2.5314   -0.1071   -0.2331 C   0  0  0  0  0  0  0  0  0  0  0  0
    1.0303   -0.0146   -0.1286 C   0  0  0  0  0  0  0  0  0  0  0  0
    0.3868    1.2089    0.1738 C   0  0  0  0  0  0  0  0  0  0  0  0
   -1.0149    1.2317    0.2350 C   0  0  0  0  0  0  0  0  0  0  0  0
   -1.7579    0.0734   -0.0092 C   0  0  0  0  0  0  0  0  0  0  0  0
   -1.1253   -1.1322   -0.3044 C   0  0  0  0  0  0  0  0  0  0  0  0
    0.2658   -1.1708   -0.3729 C   0  0  0  0  0  0  0  0  0  0  0  0
   -3.5179    0.1347    0.1087 S   0  0  0  0  0  0  0  0  0  0  0  0
   -4.0279   -1.1972    0.3407 O   0  0  0  0  0  0  0  0  0  0  0  0
   -3.9052    1.2632    0.9228 O   0  0  0  0  0  0  0  0  0  0  0  0
   -3.9629    0.5302   -1.4620 N   0  0  0  0  0  0  0  0  0  0  0  0
    1.1600    2.3683    0.3898 N   0  0  0  0  0  0  0  0  0  0  0  0
    0.7149    3.2231    1.4906 C   0  0  0  0  0  0  0  0  0  0  0  0
    1.4262    3.0856   -0.8600 C   0  0  0  0  0  0  0  0  0  0  0  0
    2.8555    0.1567   -1.2451 H   0  0  0  0  0  0  0  0  0  0  0  0
    2.8800   -1.1217   -0.0123 H   0  0  0  0  0  0  0  0  0  0  0  0
    3.0270    0.5537    0.4851 H   0  0  0  0  0  0  0  0  0  0  0  0
   -1.5374    2.1583    0.4561 H   0  0  0  0  0  0  0  0  0  0  0  0
   -1.7019   -2.0365   -0.4836 H   0  0  0  0  0  0  0  0  0  0  0  0
    0.7579   -2.1122   -0.6088 H   0  0  0  0  0  0  0  0  0  0  0  0
   -4.5154   -0.2268   -1.8660 H   0  0  0  0  0  0  0  0  0  0  0  0
   -4.4366    1.4335   -1.4673 H   0  0  0  0  0  0  0  0  0  0  0  0
    0.5116    2.6346    2.3927 H   0  0  0  0  0  0  0  0  0  0  0  0
   -0.1777    3.8016    1.2290 H   0  0  0  0  0  0  0  0  0  0  0  0
    1.5085    3.9341    1.7421 H   0  0  0  0  0  0  0  0  0  0  0  0
    1.8536    2.4254   -1.6228 H   0  0  0  0  0  0  0  0  0  0  0  0
    2.1580    3.8810   -0.6785 H   0  0  0  0  0  0  0  0  0  0  0  0
    0.5137    3.5435   -1.2601 H   0  0  0  0  0  0  0  0  0  0  0  0
  1  2  1  0  0  0  0
  1 15  1  0  0  0  0
  1 16  1  0  0  0  0
  1 17  1  0  0  0  0
  2  3  2  0  0  0  0
  2  7  1  0  0  0  0
  3  4  1  0  0  0  0
  3 12  1  0  0  0  0
  4  5  2  0  0  0  0
  4 18  1  0  0  0  0
  5  6  1  0  0  0  0
  5  8  1  0  0  0  0
  6  7  2  0  0  0  0
  6 19  1  0  0  0  0
  7 20  1  0  0  0  0
  8  9  2  0  0  0  0
  8 10  2  0  0  0  0
  8 11  1  0  0  0  0
 11 21  1  0  0  0  0
 11 22  1  0  0  0  0
 12 13  1  0  0  0  0
 12 14  1  0  0  0  0
 13 23  1  0  0  0  0
 13 24  1  0  0  0  0
 13 25  1  0  0  0  0
 14 26  1  0  0  0  0
 14 27  1  0  0  0  0
 14 28  1  0  0  0  0
M  END
