
 OpenBabel10072619483D

 37 39  0  0  1  0  0  0  0  0999 V2000
   -1.3287    0.5043    0.6411 C   0  0  0  0  0  0  0  0  0  0  0  0
   -1.1666   -0.9356    0.2259 C   0  0  3  0  0  0  0  0  0  0  0  0
    0.2447   -1.1532    0.2085 O   0  0  0  0  0  0  0  0  0  0  0  0
    0.8584    0.0867   -0.0900 N   0  0  0  0  0  0  0  0  0  0  0  0
   -0.0219    1.0122    0.1406 C   0  0  0  0  0  0  0  0  0  0  0  0
    0.2739    2.4113   -0.0594 C   0  0  0  0  0  0  0  0  0  0  0  0
    1.4420    2.9701   -0.5467 C   0  0  0  0  0  0  0  0  0  0  0  0
    1.3789    4.3925   -0.6244 C   0  0  0  0  0  0  0  0  0  0  0  0
    0.1671    4.8763   -0.1874 C   0  0  0  0  0  0  0  0  0  0  0  0
   -0.8792    3.6224    0.3114 S   0  0  0  0  0  0  0  0  0  0  0  0
   -1.8442   -1.9132    1.1740 C   0  0  0  0  0  0  0  0  0  0  0  0
   -2.7176   -1.5927    1.9802 O   0  0  0  0  0  0  0  0  0  0  0  0
   -1.4754   -3.2296    0.9697 N   0  0  0  0  0  0  0  0  0  0  0  0
   -2.0136   -4.2006    1.8403 N   0  0  0  0  0  0  0  0  0  0  0  0
   -1.1954   -5.2798    2.1542 C   0  0  0  0  0  0  0  0  0  0  0  0
   -0.1000   -5.4275    1.6218 O   0  0  0  0  0  0  0  0  0  0  0  0
   -1.8056   -6.1152    3.0647 N   0  0  0  0  0  0  0  0  0  0  0  0
   -1.2859   -7.2916    3.6395 C   0  0  0  0  0  0  0  0  0  0  0  0
    0.0212   -7.7414    3.4465 C   0  0  0  0  0  0  0  0  0  0  0  0
    0.4568   -8.9288    4.0440 C   0  0  0  0  0  0  0  0  0  0  0  0
   -0.4088   -9.6731    4.8418 C   0  0  0  0  0  0  0  0  0  0  0  0
   -1.7096   -9.2251    5.0528 C   0  0  0  0  0  0  0  0  0  0  0  0
   -2.1452   -8.0392    4.4558 C   0  0  0  0  0  0  0  0  0  0  0  0
   -1.3732    0.6438    1.7262 H   0  0  0  0  0  0  0  0  0  0  0  0
   -2.1931    0.9747    0.1672 H   0  0  0  0  0  0  0  0  0  0  0  0
   -1.5546   -1.1051   -0.7858 H   0  0  0  0  0  0  0  0  0  0  0  0
    2.3041    2.3800   -0.8398 H   0  0  0  0  0  0  0  0  0  0  0  0
    2.1810    5.0263   -0.9829 H   0  0  0  0  0  0  0  0  0  0  0  0
   -0.1561    5.9070   -0.1348 H   0  0  0  0  0  0  0  0  0  0  0  0
   -0.5629   -3.4551    0.5633 H   0  0  0  0  0  0  0  0  0  0  0  0
   -2.6037   -3.8142    2.5754 H   0  0  0  0  0  0  0  0  0  0  0  0
   -2.7777   -5.9173    3.2499 H   0  0  0  0  0  0  0  0  0  0  0  0
    0.7302   -7.1920    2.8350 H   0  0  0  0  0  0  0  0  0  0  0  0
    1.4762   -9.2701    3.8824 H   0  0  0  0  0  0  0  0  0  0  0  0
   -0.0692  -10.5995    5.2975 H   0  0  0  0  0  0  0  0  0  0  0  0
   -2.3877   -9.8001    5.6778 H   0  0  0  0  0  0  0  0  0  0  0  0
   -3.1672   -7.7152    4.6328 H   0  0  0  0  0  0  0  0  0  0  0  0
  1  2  1  0  0  0  0
  1  5  1  0  0  0  0
  1 24  1  0  0  0  0
  1 25  1  0  0  0  0
  2  3  1  0  0  0  0
  2 11  1  0  0  0  0
  2 26  1  0  0  0  0
  3  4  1  0  0  0  0
  4  5  2  0  0  0  0
  5  6  1  0  0  0  0
  6  7  2  0  0  0  0
  6 10  1  0  0  0  0
  7  8  1  0  0  0  0
  7 27  1  0  0  0  0
  8  9  2  0  0  0  0
  8 28  1  0  0  0  0
  9 10  1  0  0  0  0
  9 29  1  0  0  0  0
 11 12  2  0  0  0  0
 11 13  1  0  0  0  0
 13 14  1  0  0  0  0
 13 30  1  0  0  0  0
 14 15  1  0  0  0  0
 14 31  1  0  0  0  0
 15 16  2  0  0  0  0
 15 17  1  0  0  0  0
 17 18  1  0  0  0  0
 17 32  1  0  0  0  0
 18 19  2  0  0  0  0
 18 23  1  0  0  0  0
 19 20  1  0  0  0  0
 19 33  1  0  0  0  0
 20 21  2  0  0  0  0
 20 34  1  0  0  0  0
 21 22  1  0  0  0  0
 21 35  1  0  0  0  0
 22 23  2  0  0  0  0
 22 36  1  0  0  0  0
 23 37  1  0  0  0  0
M  END
