
 OpenBabel10072620183D

 60 63  0  0  0  0  0  0  0  0999 V2000
    2.5120   -0.0394   -1.5157 C   0  0  0  0  0  0  0  0  0  0  0  0
    1.7476   -1.1184   -1.0806 C   0  0  0  0  0  0  0  0  0  0  0  0
    0.3789   -0.9554   -0.7579 C   0  0  0  0  0  0  0  0  0  0  0  0
   -0.5009   -1.9700   -0.2989 C   0  0  0  0  0  0  0  0  0  0  0  0
   -1.8272   -1.6832    0.0491 C   0  0  0  0  0  0  0  0  0  0  0  0
   -2.3282   -0.3841   -0.0861 C   0  0  0  0  0  0  0  0  0  0  0  0
   -1.4694    0.6034   -0.5773 C   0  0  0  0  0  0  0  0  0  0  0  0
   -0.1368    0.3489   -0.8998 C   0  0  0  0  0  0  0  0  0  0  0  0
    0.5946    1.3981   -1.3279 N   0  0  0  0  0  0  0  0  0  0  0  0
    1.8958    1.1893   -1.6219 C   0  0  0  0  0  0  0  0  0  0  0  0
   -1.9079    1.9040   -0.7508 O   0  0  0  0  0  0  0  0  0  0  0  0
   -3.7467   -0.1410    0.3354 C   0  0  0  0  0  0  0  0  0  0  0  0
   -4.3317   -1.0364    0.9354 O   0  0  0  0  0  0  0  0  0  0  0  0
   -4.2939    1.0751   -0.0208 N   0  0  0  0  0  0  0  0  0  0  0  0
   -5.5753    1.5713    0.2914 C   0  0  0  0  0  0  0  0  0  0  0  0
   -6.4479    0.9677    1.1976 C   0  0  0  0  0  0  0  0  0  0  0  0
   -7.7049    1.5418    1.4591 C   0  0  0  0  0  0  0  0  0  0  0  0
   -8.1237    2.7081    0.8009 C   0  0  0  0  0  0  0  0  0  0  0  0
   -7.2316    3.3148   -0.0925 C   0  0  0  0  0  0  0  0  0  0  0  0
   -5.9695    2.7581   -0.3357 C   0  0  0  0  0  0  0  0  0  0  0  0
   -9.4681    3.2784    0.9620 C   0  0  0  0  0  0  0  0  0  0  0  0
   -9.6708    4.5176    1.4313 C   0  0  0  0  0  0  0  0  0  0  0  0
  -11.0170    5.0649    1.6327 C   0  0  0  0  0  0  0  0  0  0  0  0
  -11.5676    5.3634    2.8881 C   0  0  0  0  0  0  0  0  0  0  0  0
  -12.8609    5.9088    2.9901 C   0  0  0  0  0  0  0  0  0  0  0  0
  -13.6480    6.1051    1.8555 C   0  0  0  0  0  0  0  0  0  0  0  0
  -13.0804    5.8687    0.6046 C   0  0  0  0  0  0  0  0  0  0  0  0
  -11.7895    5.3383    0.4930 C   0  0  0  0  0  0  0  0  0  0  0  0
  -14.8862    6.7450    1.9621 N   0  0  0  0  0  0  0  0  0  0  0  0
  -10.6821    5.0775    4.4081 S   0  0  0  0  0  0  0  0  0  0  0  0
   -9.2695    5.3019    4.1862 O   0  0  0  0  0  0  0  0  0  0  0  0
  -11.3771    5.7789    5.4682 O   0  0  0  0  0  0  0  0  0  0  0  0
  -10.8762    3.4987    4.6752 O   0  0  0  0  0  0  0  0  0  0  0  0
   -8.7339    0.8109    2.7034 S   0  0  0  0  0  0  0  0  0  0  0  0
   -9.1178    1.8516    3.6433 O   0  0  0  0  0  0  0  0  0  0  0  0
   -9.7233   -0.0010    2.0331 O   0  0  0  0  0  0  0  0  0  0  0  0
   -7.7823   -0.1737    3.5538 O   0  0  0  0  0  0  0  0  0  0  0  0
    0.0573   -3.6493   -0.1768 S   0  0  0  0  0  0  0  0  0  0  0  0
    0.4501   -4.0754   -1.5018 O   0  0  0  0  0  0  0  0  0  0  0  0
    0.9543   -3.7314    0.9528 O   0  0  0  0  0  0  0  0  0  0  0  0
   -1.2468   -4.5297    0.1729 O   0  0  0  0  0  0  0  0  0  0  0  0
    3.5633   -0.1581   -1.7589 H   0  0  0  0  0  0  0  0  0  0  0  0
    2.2464   -2.0814   -0.9832 H   0  0  0  0  0  0  0  0  0  0  0  0
   -2.4763   -2.4688    0.4337 H   0  0  0  0  0  0  0  0  0  0  0  0
    2.4476    2.0665   -1.9507 H   0  0  0  0  0  0  0  0  0  0  0  0
   -1.0962    2.3876   -1.0363 H   0  0  0  0  0  0  0  0  0  0  0  0
   -3.6941    1.6832   -0.5765 H   0  0  0  0  0  0  0  0  0  0  0  0
   -6.1600    0.0616    1.7226 H   0  0  0  0  0  0  0  0  0  0  0  0
   -7.5133    4.2273   -0.6158 H   0  0  0  0  0  0  0  0  0  0  0  0
   -5.3055    3.2574   -1.0384 H   0  0  0  0  0  0  0  0  0  0  0  0
  -10.3017    2.6245    0.7105 H   0  0  0  0  0  0  0  0  0  0  0  0
   -8.8413    5.1649    1.7100 H   0  0  0  0  0  0  0  0  0  0  0  0
  -13.2641    6.1759    3.9658 H   0  0  0  0  0  0  0  0  0  0  0  0
  -13.6373    6.0958   -0.3017 H   0  0  0  0  0  0  0  0  0  0  0  0
  -11.3842    5.1606   -0.5015 H   0  0  0  0  0  0  0  0  0  0  0  0
  -15.3404    6.6203    2.8628 H   0  0  0  0  0  0  0  0  0  0  0  0
  -15.5176    6.5677    1.1868 H   0  0  0  0  0  0  0  0  0  0  0  0
  -10.1036    3.0003    4.3028 H   0  0  0  0  0  0  0  0  0  0  0  0
   -7.8640    0.0565    4.5031 H   0  0  0  0  0  0  0  0  0  0  0  0
   -1.2373   -5.3263   -0.3998 H   0  0  0  0  0  0  0  0  0  0  0  0
  1  2  2  0  0  0  0
  1 10  1  0  0  0  0
  1 42  1  0  0  0  0
  2  3  1  0  0  0  0
  2 43  1  0  0  0  0
  3  4  2  0  0  0  0
  3  8  1  0  0  0  0
  4  5  1  0  0  0  0
  4 38  1  0  0  0  0
  5  6  2  0  0  0  0
  5 44  1  0  0  0  0
  6  7  1  0  0  0  0
  6 12  1  0  0  0  0
  7  8  2  0  0  0  0
  7 11  1  0  0  0  0
  8  9  1  0  0  0  0
  9 10  2  0  0  0  0
 10 45  1  0  0  0  0
 11 46  1  0  0  0  0
 12 13  2  0  0  0  0
 12 14  1  0  0  0  0
 14 15  1  0  0  0  0
 14 47  1  0  0  0  0
 15 16  2  0  0  0  0
 15 20  1  0  0  0  0
 16 17  1  0  0  0  0
 16 48  1  0  0  0  0
 17 18  2  0  0  0  0
 17 34  1  0  0  0  0
 18 19  1  0  0  0  0
 18 21  1  0  0  0  0
 19 20  2  0  0  0  0
 19 49  1  0  0  0  0
 20 50  1  0  0  0  0
 21 22  2  0  0  0  0
 21 51  1  0  0  0  0
 22 23  1  0  0  0  0
 22 52  1  0  0  0  0
 23 24  2  0  0  0  0
 23 28  1  0  0  0  0
 24 25  1  0  0  0  0
 24 30  1  0  0  0  0
 25 26  2  0  0  0  0
 25 53  1  0  0  0  0
 26 27  1  0  0  0  0
 26 29  1  0  0  0  0
 27 28  2  0  0  0  0
 27 54  1  0  0  0  0
 28 55  1  0  0  0  0
 29 56  1  0  0  0  0
 29 57  1  0  0  0  0
 30 31  2  0  0  0  0
 30 32  2  0  0  0  0
 30 33  1  0  0  0  0
 33 58  1  0  0  0  0
 34 35  2  0  0  0  0
 34 36  2  0  0  0  0
 34 37  1  0  0  0  0
 37 59  1  0  0  0  0
 38 39  2  0  0  0  0
 38 40  2  0  0  0  0
 38 41  1  0  0  0  0
 41 60  1  0  0  0  0
M  END
