
 OpenBabel10072620233D

 29 30  0  0  0  0  0  0  0  0999 V2000
   -0.0656   -1.0628   -0.7566 C   0  0  0  0  0  0  0  0  0  0  0  0
    1.2510   -1.4248   -0.4465 C   0  0  0  0  0  0  0  0  0  0  0  0
    2.2287   -0.4471   -0.2466 C   0  0  0  0  0  0  0  0  0  0  0  0
    1.8672    0.9029   -0.3501 C   0  0  0  0  0  0  0  0  0  0  0  0
    0.5536    1.2678   -0.6631 C   0  0  0  0  0  0  0  0  0  0  0  0
   -0.4182    0.2844   -0.8659 C   0  0  0  0  0  0  0  0  0  0  0  0
   -1.7669    0.6574   -1.1758 C   0  0  0  0  0  0  0  0  0  0  0  0
   -2.8575    0.9697   -1.4218 N   0  0  0  0  0  0  0  0  0  0  0  0
    3.5676   -0.7336    0.0865 N   0  0  0  0  0  0  0  0  0  0  0  0
    4.1981   -1.9703    0.0583 C   0  0  0  0  0  0  0  0  0  0  0  0
    3.7097   -2.9968   -0.3938 O   0  0  0  0  0  0  0  0  0  0  0  0
    5.4640   -1.8666    0.6175 N   0  0  0  0  0  0  0  0  0  0  0  0
    6.4750   -2.8489    0.6429 C   0  0  0  0  0  0  0  0  0  0  0  0
    6.4283   -4.0346   -0.0968 C   0  0  0  0  0  0  0  0  0  0  0  0
    7.4858   -4.9487   -0.0339 C   0  0  0  0  0  0  0  0  0  0  0  0
    8.5875   -4.6741    0.7647 C   0  0  0  0  0  0  0  0  0  0  0  0
    8.6543   -3.5013    1.5040 C   0  0  0  0  0  0  0  0  0  0  0  0
    7.5994   -2.5875    1.4403 C   0  0  0  0  0  0  0  0  0  0  0  0
    9.5998   -5.5491    0.8225 F   0  0  0  0  0  0  0  0  0  0  0  0
   -0.8078   -1.8453   -0.9083 H   0  0  0  0  0  0  0  0  0  0  0  0
    1.4798   -2.4834   -0.3575 H   0  0  0  0  0  0  0  0  0  0  0  0
    2.6008    1.6904   -0.1936 H   0  0  0  0  0  0  0  0  0  0  0  0
    0.2966    2.3226   -0.7449 H   0  0  0  0  0  0  0  0  0  0  0  0
    4.1797    0.0607    0.1957 H   0  0  0  0  0  0  0  0  0  0  0  0
    5.6154   -1.0611    1.2053 H   0  0  0  0  0  0  0  0  0  0  0  0
    5.5866   -4.2738   -0.7399 H   0  0  0  0  0  0  0  0  0  0  0  0
    7.4517   -5.8703   -0.6064 H   0  0  0  0  0  0  0  0  0  0  0  0
    9.5236   -3.3049    2.1229 H   0  0  0  0  0  0  0  0  0  0  0  0
    7.6694   -1.6744    2.0256 H   0  0  0  0  0  0  0  0  0  0  0  0
  1  2  2  0  0  0  0
  1  6  1  0  0  0  0
  1 20  1  0  0  0  0
  2  3  1  0  0  0  0
  2 21  1  0  0  0  0
  3  4  2  0  0  0  0
  3  9  1  0  0  0  0
  4  5  1  0  0  0  0
  4 22  1  0  0  0  0
  5  6  2  0  0  0  0
  5 23  1  0  0  0  0
  6  7  1  0  0  0  0
  7  8  3  0  0  0  0
  9 10  1  0  0  0  0
  9 24  1  0  0  0  0
 10 11  2  0  0  0  0
 10 12  1  0  0  0  0
 12 13  1  0  0  0  0
 12 25  1  0  0  0  0
 13 14  2  0  0  0  0
 13 18  1  0  0  0  0
 14 15  1  0  0  0  0
 14 26  1  0  0  0  0
 15 16  2  0  0  0  0
 15 27  1  0  0  0  0
 16 17  1  0  0  0  0
 16 19  1  0  0  0  0
 17 18  2  0  0  0  0
 17 28  1  0  0  0  0
 18 29  1  0  0  0  0
M  END
