
 OpenBabel10072620013D

 57 59  0  0  0  0  0  0  0  0999 V2000
    1.1101   -1.3690    3.6268 C   0  0  0  0  0  0  0  0  0  0  0  0
   -0.0476   -0.9621    2.7633 C   0  0  0  0  0  0  0  0  0  0  0  0
   -1.2741   -0.6174    3.3473 C   0  0  0  0  0  0  0  0  0  0  0  0
   -2.3624   -0.2683    2.5474 C   0  0  0  0  0  0  0  0  0  0  0  0
   -2.2246   -0.2735    1.1565 C   0  0  0  0  0  0  0  0  0  0  0  0
   -1.0183   -0.6405    0.5596 C   0  0  0  0  0  0  0  0  0  0  0  0
    0.0683   -0.9807    1.3674 C   0  0  0  0  0  0  0  0  0  0  0  0
   -3.6590    0.0402    0.1634 S   0  0  0  0  0  0  0  0  0  0  0  0
   -3.3138   -0.1126   -1.2353 O   0  0  0  0  0  0  0  0  0  0  0  0
   -4.7200   -0.7547    0.7504 O   0  0  0  0  0  0  0  0  0  0  0  0
   -4.0087    1.7085    0.4458 N   0  0  0  0  0  0  0  0  0  0  0  0
   -3.0910    2.6710   -0.2342 C   0  0  0  0  0  0  0  0  0  0  0  0
   -1.7529    2.8875    0.4551 C   0  0  0  0  0  0  0  0  0  0  0  0
   -0.7315    2.3966   -0.0375 O   0  0  0  0  0  0  0  0  0  0  0  0
   -1.7124    3.6942    1.5972 N   0  0  0  0  0  0  0  0  0  0  0  0
   -0.4074    3.9928    2.1897 C   0  0  0  0  0  0  0  0  0  0  0  0
   -0.1608    3.2055    3.4724 C   0  0  0  0  0  0  0  0  0  0  0  0
   -0.7968    3.8301    4.7123 C   0  0  0  0  0  0  0  0  0  0  0  0
   -2.3113    4.0178    4.6442 C   0  0  0  0  0  0  0  0  0  0  0  0
   -2.7611    4.9713    3.5391 C   0  0  0  0  0  0  0  0  0  0  0  0
   -2.9117    4.2860    2.1842 C   0  0  0  0  0  0  0  0  0  0  0  0
   -5.4148    1.9941    0.2670 C   0  0  0  0  0  0  0  0  0  0  0  0
   -6.2289    2.0138    1.3988 C   0  0  0  0  0  0  0  0  0  0  0  0
   -7.6138    2.2339    1.2921 C   0  0  0  0  0  0  0  0  0  0  0  0
   -8.1935    2.4253    0.0309 C   0  0  0  0  0  0  0  0  0  0  0  0
   -7.3590    2.3672   -1.0998 C   0  0  0  0  0  0  0  0  0  0  0  0
   -5.9838    2.1438   -0.9928 C   0  0  0  0  0  0  0  0  0  0  0  0
   -9.4886    2.6647   -0.3341 O   0  0  0  0  0  0  0  0  0  0  0  0
  -10.5102    2.7928    0.6372 C   0  0  0  0  0  0  0  0  0  0  0  0
   -8.4658    2.2256    2.7956 Cl  0  0  0  0  0  0  0  0  0  0  0  0
    1.1463   -0.7611    4.5367 H   0  0  0  0  0  0  0  0  0  0  0  0
    2.0610   -1.2268    3.1025 H   0  0  0  0  0  0  0  0  0  0  0  0
    1.0162   -2.4233    3.9053 H   0  0  0  0  0  0  0  0  0  0  0  0
   -1.3865   -0.6250    4.4283 H   0  0  0  0  0  0  0  0  0  0  0  0
   -3.3152   -0.0181    3.0088 H   0  0  0  0  0  0  0  0  0  0  0  0
   -0.9129   -0.6628   -0.5221 H   0  0  0  0  0  0  0  0  0  0  0  0
    1.0077   -1.2640    0.8976 H   0  0  0  0  0  0  0  0  0  0  0  0
   -3.5752    3.6509   -0.3336 H   0  0  0  0  0  0  0  0  0  0  0  0
   -2.8897    2.3589   -1.2667 H   0  0  0  0  0  0  0  0  0  0  0  0
   -0.3173    5.0739    2.3447 H   0  0  0  0  0  0  0  0  0  0  0  0
    0.3833    3.7352    1.4786 H   0  0  0  0  0  0  0  0  0  0  0  0
    0.9221    3.1576    3.6457 H   0  0  0  0  0  0  0  0  0  0  0  0
   -0.5056    2.1732    3.3569 H   0  0  0  0  0  0  0  0  0  0  0  0
   -0.3228    4.8003    4.9096 H   0  0  0  0  0  0  0  0  0  0  0  0
   -0.5635    3.1942    5.5760 H   0  0  0  0  0  0  0  0  0  0  0  0
   -2.6387    4.4386    5.6034 H   0  0  0  0  0  0  0  0  0  0  0  0
   -2.8095    3.0461    4.5407 H   0  0  0  0  0  0  0  0  0  0  0  0
   -2.0875    5.8328    3.4724 H   0  0  0  0  0  0  0  0  0  0  0  0
   -3.7454    5.3754    3.8092 H   0  0  0  0  0  0  0  0  0  0  0  0
   -3.2907    5.0183    1.4627 H   0  0  0  0  0  0  0  0  0  0  0  0
   -3.6691    3.5046    2.2784 H   0  0  0  0  0  0  0  0  0  0  0  0
   -5.7812    1.8356    2.3740 H   0  0  0  0  0  0  0  0  0  0  0  0
   -7.7954    2.4827   -2.0907 H   0  0  0  0  0  0  0  0  0  0  0  0
   -5.3860    2.0640   -1.8969 H   0  0  0  0  0  0  0  0  0  0  0  0
  -11.4407    3.0102    0.1022 H   0  0  0  0  0  0  0  0  0  0  0  0
  -10.3209    3.6383    1.3050 H   0  0  0  0  0  0  0  0  0  0  0  0
  -10.6637    1.8535    1.1758 H   0  0  0  0  0  0  0  0  0  0  0  0
  1  2  1  0  0  0  0
  1 31  1  0  0  0  0
  1 32  1  0  0  0  0
  1 33  1  0  0  0  0
  2  3  2  0  0  0  0
  2  7  1  0  0  0  0
  3  4  1  0  0  0  0
  3 34  1  0  0  0  0
  4  5  2  0  0  0  0
  4 35  1  0  0  0  0
  5  6  1  0  0  0  0
  5  8  1  0  0  0  0
  6  7  2  0  0  0  0
  6 36  1  0  0  0  0
  7 37  1  0  0  0  0
  8  9  2  0  0  0  0
  8 10  2  0  0  0  0
  8 11  1  0  0  0  0
 11 12  1  0  0  0  0
 11 22  1  0  0  0  0
 12 13  1  0  0  0  0
 12 38  1  0  0  0  0
 12 39  1  0  0  0  0
 13 14  2  0  0  0  0
 13 15  1  0  0  0  0
 15 16  1  0  0  0  0
 15 21  1  0  0  0  0
 16 17  1  0  0  0  0
 16 40  1  0  0  0  0
 16 41  1  0  0  0  0
 17 18  1  0  0  0  0
 17 42  1  0  0  0  0
 17 43  1  0  0  0  0
 18 19  1  0  0  0  0
 18 44  1  0  0  0  0
 18 45  1  0  0  0  0
 19 20  1  0  0  0  0
 19 46  1  0  0  0  0
 19 47  1  0  0  0  0
 20 21  1  0  0  0  0
 20 48  1  0  0  0  0
 20 49  1  0  0  0  0
 21 50  1  0  0  0  0
 21 51  1  0  0  0  0
 22 23  2  0  0  0  0
 22 27  1  0  0  0  0
 23 24  1  0  0  0  0
 23 52  1  0  0  0  0
 24 25  2  0  0  0  0
 24 30  1  0  0  0  0
 25 26  1  0  0  0  0
 25 28  1  0  0  0  0
 26 27  2  0  0  0  0
 26 53  1  0  0  0  0
 27 54  1  0  0  0  0
 28 29  1  0  0  0  0
 29 55  1  0  0  0  0
 29 56  1  0  0  0  0
 29 57  1  0  0  0  0
M  END
