
 OpenBabel10072619423D

103106  0  0  1  0  0  0  0  0999 V2000
    1.1603   -0.3965    0.5117 C   0  0  0  0  0  0  0  0  0  0  0  0
    2.4621   -0.2062   -0.1134 N   0  0  0  0  0  0  0  0  0  0  0  0
    2.9159    1.1997   -0.2252 C   0  0  2  0  0  0  0  0  0  0  0  0
    2.9485    1.5440   -1.7340 C   0  0  0  0  0  0  0  0  0  0  0  0
    1.9046    1.6320   -2.3866 O   0  0  0  0  0  0  0  0  0  0  0  0
    4.1780    1.5537   -2.3355 N   0  0  0  0  0  0  0  0  0  0  0  0
    4.3706    1.6756   -3.7796 C   0  0  2  0  0  0  0  0  0  0  0  0
    5.5621    0.7824   -4.2093 C   0  0  0  0  0  0  0  0  0  0  0  0
    6.1372    0.9221   -5.2887 O   0  0  0  0  0  0  0  0  0  0  0  0
    5.8781   -0.2190   -3.3170 N   0  0  0  0  0  0  0  0  0  0  0  0
    7.0364   -1.0941   -3.4813 C   0  0  2  0  0  0  0  0  0  0  0  0
    6.8096   -2.3415   -4.3672 C   0  0  0  0  0  0  0  0  0  0  0  0
    7.7571   -2.8510   -4.9701 O   0  0  0  0  0  0  0  0  0  0  0  0
    5.6373   -3.0331   -4.4097 N   0  0  0  0  0  0  0  0  0  0  0  0
    4.3934   -2.9039   -3.6694 C   0  0  0  0  0  0  0  0  0  0  0  0
    4.4177   -3.7440   -2.3938 C   0  0  0  0  0  0  0  0  0  0  0  0
    5.2465   -4.6443   -2.2195 O   0  0  0  0  0  0  0  0  0  0  0  0
    3.4927   -3.5610   -1.4123 N   0  0  0  0  0  0  0  0  0  0  0  0
    2.4934   -2.5042   -1.1836 C   0  0  1  0  0  0  0  0  0  0  0  0
    3.2109   -1.2045   -0.7262 C   0  0  0  0  0  0  0  0  0  0  0  0
    4.3870   -0.9977   -1.0618 O   0  0  0  0  0  0  0  0  0  0  0  0
    1.5589   -2.1517   -2.3635 C   0  0  0  0  0  0  0  0  0  0  0  0
    0.9253   -3.2565   -3.1765 C   0  0  0  0  0  0  0  0  0  0  0  0
    0.6839   -4.5404   -2.6752 C   0  0  0  0  0  0  0  0  0  0  0  0
    0.0935   -5.5208   -3.4808 C   0  0  0  0  0  0  0  0  0  0  0  0
   -0.2683   -5.2147   -4.7883 C   0  0  0  0  0  0  0  0  0  0  0  0
   -0.0844   -3.9363   -5.2926 C   0  0  0  0  0  0  0  0  0  0  0  0
    0.5020   -2.9594   -4.4862 C   0  0  0  0  0  0  0  0  0  0  0  0
   -0.8210   -6.1525   -5.6085 O   0  0  0  0  0  0  0  0  0  0  0  0
    7.5516   -1.4982   -2.0838 C   0  0  0  0  0  0  0  0  0  0  0  0
    8.9766   -2.0013   -1.9993 C   0  0  0  0  0  0  0  0  0  0  0  0
    9.2616   -3.1686   -1.2703 C   0  0  0  0  0  0  0  0  0  0  0  0
   10.5823   -3.6381   -1.1241 C   0  0  0  0  0  0  0  0  0  0  0  0
   10.8722   -4.8002   -0.3870 C   0  0  0  0  0  0  0  0  0  0  0  0
   12.1898   -5.2423   -0.2426 C   0  0  0  0  0  0  0  0  0  0  0  0
   13.2280   -4.5386   -0.8422 C   0  0  0  0  0  0  0  0  0  0  0  0
   12.9550   -3.3881   -1.5840 C   0  0  0  0  0  0  0  0  0  0  0  0
   11.6357   -2.9223   -1.7240 C   0  0  0  0  0  0  0  0  0  0  0  0
   11.3521   -1.7510   -2.4422 C   0  0  0  0  0  0  0  0  0  0  0  0
   10.0376   -1.2893   -2.5660 C   0  0  0  0  0  0  0  0  0  0  0  0
    4.6331    3.1337   -4.1946 C   0  0  0  0  0  0  0  0  0  0  0  0
    3.5494    4.1152   -3.7430 C   0  0  0  0  0  0  0  0  0  0  0  0
    3.8355    5.5417   -4.2182 C   0  0  0  0  0  0  0  0  0  0  0  0
    2.9134    6.4435   -3.5205 N   0  0  0  0  0  0  0  0  0  0  0  0
    2.7654    7.6301   -3.9773 C   0  0  0  0  0  0  0  0  0  0  0  0
    3.3586    8.2459   -5.0222 N   0  0  0  0  0  0  0  0  0  0  0  0
    1.9093    8.4791   -3.3697 N   0  0  0  0  0  0  0  0  0  0  0  0
    4.1558    1.5297    0.6175 C   0  0  0  0  0  0  0  0  0  0  0  0
    4.5812    3.0046    0.5682 C   0  0  0  0  0  0  0  0  0  0  0  0
    3.6087    3.9784    1.2378 C   0  0  0  0  0  0  0  0  0  0  0  0
    4.0131    5.3388    0.8941 N   0  0  0  0  0  0  0  0  0  0  0  0
    3.4057    5.9936   -0.0241 C   0  0  0  0  0  0  0  0  0  0  0  0
    2.3520    5.6411   -0.7957 N   0  0  0  0  0  0  0  0  0  0  0  0
    3.8015    7.2508   -0.3233 N   0  0  0  0  0  0  0  0  0  0  0  0
    1.1421    0.1555    1.4568 H   0  0  0  0  0  0  0  0  0  0  0  0
    0.9553   -1.4426    0.7310 H   0  0  0  0  0  0  0  0  0  0  0  0
    0.3896    0.0019   -0.1527 H   0  0  0  0  0  0  0  0  0  0  0  0
    2.0977    1.8191    0.1601 H   0  0  0  0  0  0  0  0  0  0  0  0
    5.0122    1.4164   -1.7781 H   0  0  0  0  0  0  0  0  0  0  0  0
    3.4771    1.3003   -4.2922 H   0  0  0  0  0  0  0  0  0  0  0  0
    5.2540   -0.4029   -2.5297 H   0  0  0  0  0  0  0  0  0  0  0  0
    7.7884   -0.4948   -4.0070 H   0  0  0  0  0  0  0  0  0  0  0  0
    5.7631   -3.9117   -4.8994 H   0  0  0  0  0  0  0  0  0  0  0  0
    3.6101   -3.3061   -4.3179 H   0  0  0  0  0  0  0  0  0  0  0  0
    4.1779   -1.8628   -3.4714 H   0  0  0  0  0  0  0  0  0  0  0  0
    3.6986   -4.1619   -0.6231 H   0  0  0  0  0  0  0  0  0  0  0  0
    1.9017   -2.8938   -0.3501 H   0  0  0  0  0  0  0  0  0  0  0  0
    0.7328   -1.5360   -1.9855 H   0  0  0  0  0  0  0  0  0  0  0  0
    2.1006   -1.4939   -3.0540 H   0  0  0  0  0  0  0  0  0  0  0  0
    0.9523   -4.8066   -1.6572 H   0  0  0  0  0  0  0  0  0  0  0  0
   -0.0781   -6.5121   -3.0723 H   0  0  0  0  0  0  0  0  0  0  0  0
   -0.3915   -3.7011   -6.3088 H   0  0  0  0  0  0  0  0  0  0  0  0
    0.6302   -1.9580   -4.8947 H   0  0  0  0  0  0  0  0  0  0  0  0
   -0.7570   -7.0179   -5.1739 H   0  0  0  0  0  0  0  0  0  0  0  0
    6.8741   -2.2474   -1.6567 H   0  0  0  0  0  0  0  0  0  0  0  0
    7.4937   -0.6303   -1.4093 H   0  0  0  0  0  0  0  0  0  0  0  0
    8.4468   -3.7192   -0.8056 H   0  0  0  0  0  0  0  0  0  0  0  0
   10.0729   -5.3679    0.0808 H   0  0  0  0  0  0  0  0  0  0  0  0
   12.4007   -6.1382    0.3351 H   0  0  0  0  0  0  0  0  0  0  0  0
   14.2541   -4.8818   -0.7349 H   0  0  0  0  0  0  0  0  0  0  0  0
   13.7769   -2.8535   -2.0506 H   0  0  0  0  0  0  0  0  0  0  0  0
   12.1544   -1.1829   -2.9049 H   0  0  0  0  0  0  0  0  0  0  0  0
    9.8660   -0.3635   -3.1098 H   0  0  0  0  0  0  0  0  0  0  0  0
    4.7311    3.1893   -5.2857 H   0  0  0  0  0  0  0  0  0  0  0  0
    5.5944    3.4618   -3.7772 H   0  0  0  0  0  0  0  0  0  0  0  0
    3.4966    4.1099   -2.6511 H   0  0  0  0  0  0  0  0  0  0  0  0
    2.5663    3.7980   -4.1118 H   0  0  0  0  0  0  0  0  0  0  0  0
    3.7081    5.5859   -5.3073 H   0  0  0  0  0  0  0  0  0  0  0  0
    4.8695    5.8131   -3.9726 H   0  0  0  0  0  0  0  0  0  0  0  0
    4.1658    7.7737   -5.4088 H   0  0  0  0  0  0  0  0  0  0  0  0
    3.5616    9.2231   -4.8376 H   0  0  0  0  0  0  0  0  0  0  0  0
    1.3312    7.9966   -2.6859 H   0  0  0  0  0  0  0  0  0  0  0  0
    1.3224    8.9683   -4.0364 H   0  0  0  0  0  0  0  0  0  0  0  0
    5.0123    0.9234    0.3036 H   0  0  0  0  0  0  0  0  0  0  0  0
    3.9600    1.2456    1.6583 H   0  0  0  0  0  0  0  0  0  0  0  0
    4.7499    3.3125   -0.4688 H   0  0  0  0  0  0  0  0  0  0  0  0
    5.5556    3.0979    1.0658 H   0  0  0  0  0  0  0  0  0  0  0  0
    3.6729    3.8585    2.3259 H   0  0  0  0  0  0  0  0  0  0  0  0
    2.5682    3.7698    0.9784 H   0  0  0  0  0  0  0  0  0  0  0  0
    2.1160    4.6625   -0.8044 H   0  0  0  0  0  0  0  0  0  0  0  0
    2.4078    5.9847   -1.7594 H   0  0  0  0  0  0  0  0  0  0  0  0
    4.6901    7.4903    0.0938 H   0  0  0  0  0  0  0  0  0  0  0  0
    3.7432    7.5106   -1.3015 H   0  0  0  0  0  0  0  0  0  0  0  0
  1  2  1  0  0  0  0
  1 55  1  0  0  0  0
  1 56  1  0  0  0  0
  1 57  1  0  0  0  0
  2  3  1  0  0  0  0
  2 20  1  0  0  0  0
  3  4  1  0  0  0  0
  3 48  1  0  0  0  0
  3 58  1  1  0  0  0
  4  5  2  0  0  0  0
  4  6  1  0  0  0  0
  6  7  1  0  0  0  0
  6 59  1  0  0  0  0
  7  8  1  0  0  0  0
  7 41  1  0  0  0  0
  7 60  1  6  0  0  0
  8  9  2  0  0  0  0
  8 10  1  0  0  0  0
 10 11  1  0  0  0  0
 10 61  1  0  0  0  0
 11 12  1  0  0  0  0
 11 30  1  0  0  0  0
 11 62  1  6  0  0  0
 12 13  2  0  0  0  0
 12 14  1  0  0  0  0
 14 15  1  0  0  0  0
 14 63  1  0  0  0  0
 15 16  1  0  0  0  0
 15 64  1  0  0  0  0
 15 65  1  0  0  0  0
 16 17  2  0  0  0  0
 16 18  1  0  0  0  0
 18 19  1  0  0  0  0
 18 66  1  0  0  0  0
 19 20  1  0  0  0  0
 19 22  1  0  0  0  0
 19 67  1  1  0  0  0
 20 21  2  0  0  0  0
 22 23  1  0  0  0  0
 22 68  1  0  0  0  0
 22 69  1  0  0  0  0
 23 24  2  0  0  0  0
 23 28  1  0  0  0  0
 24 25  1  0  0  0  0
 24 70  1  0  0  0  0
 25 26  2  0  0  0  0
 25 71  1  0  0  0  0
 26 27  1  0  0  0  0
 26 29  1  0  0  0  0
 27 28  2  0  0  0  0
 27 72  1  0  0  0  0
 28 73  1  0  0  0  0
 29 74  1  0  0  0  0
 30 31  1  0  0  0  0
 30 75  1  0  0  0  0
 30 76  1  0  0  0  0
 31 32  2  0  0  0  0
 31 40  1  0  0  0  0
 32 33  1  0  0  0  0
 32 77  1  0  0  0  0
 33 34  2  0  0  0  0
 33 38  1  0  0  0  0
 34 35  1  0  0  0  0
 34 78  1  0  0  0  0
 35 36  2  0  0  0  0
 35 79  1  0  0  0  0
 36 37  1  0  0  0  0
 36 80  1  0  0  0  0
 37 38  2  0  0  0  0
 37 81  1  0  0  0  0
 38 39  1  0  0  0  0
 39 40  2  0  0  0  0
 39 82  1  0  0  0  0
 40 83  1  0  0  0  0
 41 42  1  0  0  0  0
 41 84  1  0  0  0  0
 41 85  1  0  0  0  0
 42 43  1  0  0  0  0
 42 86  1  0  0  0  0
 42 87  1  0  0  0  0
 43 44  1  0  0  0  0
 43 88  1  0  0  0  0
 43 89  1  0  0  0  0
 44 45  2  0  0  0  0
 45 46  1  0  0  0  0
 45 47  1  0  0  0  0
 46 90  1  0  0  0  0
 46 91  1  0  0  0  0
 47 92  1  0  0  0  0
 47 93  1  0  0  0  0
 48 49  1  0  0  0  0
 48 94  1  0  0  0  0
 48 95  1  0  0  0  0
 49 50  1  0  0  0  0
 49 96  1  0  0  0  0
 49 97  1  0  0  0  0
 50 51  1  0  0  0  0
 50 98  1  0  0  0  0
 50 99  1  0  0  0  0
 51 52  2  0  0  0  0
 52 53  1  0  0  0  0
 52 54  1  0  0  0  0
 53100  1  0  0  0  0
 53101  1  0  0  0  0
 54102  1  0  0  0  0
 54103  1  0  0  0  0
M  END
