
 OpenBabel10072620063D

 25 25  0  0  0  0  0  0  0  0999 V2000
    2.4650   -0.0118    0.2938 C   0  0  0  0  0  0  0  0  0  0  0  0
    0.9707   -0.0151    0.1518 C   0  0  0  0  0  0  0  0  0  0  0  0
    0.2177    1.1040    0.5327 C   0  0  0  0  0  0  0  0  0  0  0  0
   -1.1745    1.0854    0.4373 C   0  0  0  0  0  0  0  0  0  0  0  0
   -1.8146   -0.0622   -0.0397 C   0  0  0  0  0  0  0  0  0  0  0  0
   -1.0799   -1.1952   -0.3967 C   0  0  0  0  0  0  0  0  0  0  0  0
    0.3118   -1.1675   -0.2989 C   0  0  0  0  0  0  0  0  0  0  0  0
   -3.5983   -0.0755   -0.1567 S   0  0  0  0  0  0  0  0  0  0  0  0
   -3.9774   -1.3902   -0.6343 O   0  0  0  0  0  0  0  0  0  0  0  0
   -4.0579    0.4423    1.1149 O   0  0  0  0  0  0  0  0  0  0  0  0
   -3.8709    1.0359   -1.3833 N   0  0  0  0  0  0  0  0  0  0  0  0
   -3.3290    0.7051   -2.7136 C   0  0  0  0  0  0  0  0  0  0  0  0
   -5.1366    1.5765   -1.3955 N   0  3  0  0  0  0  0  0  0  0  0  0
   -6.0444    0.9624   -0.8407 O   0  0  0  0  0  0  0  0  0  0  0  0
   -5.2257    2.6133   -2.0576 O   0  5  0  0  0  0  0  0  0  0  0  0
    2.8618    1.0082    0.2649 H   0  0  0  0  0  0  0  0  0  0  0  0
    2.9323   -0.5656   -0.5270 H   0  0  0  0  0  0  0  0  0  0  0  0
    2.7510   -0.4735    1.2437 H   0  0  0  0  0  0  0  0  0  0  0  0
    0.7134    1.9943    0.9155 H   0  0  0  0  0  0  0  0  0  0  0  0
   -1.7481    1.9556    0.7488 H   0  0  0  0  0  0  0  0  0  0  0  0
   -1.5741   -2.1016   -0.7394 H   0  0  0  0  0  0  0  0  0  0  0  0
    0.8830   -2.0543   -0.5675 H   0  0  0  0  0  0  0  0  0  0  0  0
   -2.3040    0.3325   -2.6524 H   0  0  0  0  0  0  0  0  0  0  0  0
   -3.2884    1.5980   -3.3467 H   0  0  0  0  0  0  0  0  0  0  0  0
   -3.9497   -0.0480   -3.2102 H   0  0  0  0  0  0  0  0  0  0  0  0
  1  2  1  0  0  0  0
  1 16  1  0  0  0  0
  1 17  1  0  0  0  0
  1 18  1  0  0  0  0
  2  3  2  0  0  0  0
  2  7  1  0  0  0  0
  3  4  1  0  0  0  0
  3 19  1  0  0  0  0
  4  5  2  0  0  0  0
  4 20  1  0  0  0  0
  5  6  1  0  0  0  0
  5  8  1  0  0  0  0
  6  7  2  0  0  0  0
  6 21  1  0  0  0  0
  7 22  1  0  0  0  0
  8  9  2  0  0  0  0
  8 10  2  0  0  0  0
  8 11  1  0  0  0  0
 11 12  1  0  0  0  0
 11 13  1  0  0  0  0
 12 23  1  0  0  0  0
 12 24  1  0  0  0  0
 12 25  1  0  0  0  0
 13 14  2  0  0  0  0
 13 15  1  0  0  0  0
M  CHG  2  13   1  15  -1
M  END
