
 OpenBabel10072619543D

 53 55  0  0  0  0  0  0  0  0999 V2000
   -2.3565   -1.4772    0.6962 C   0  0  0  0  0  0  0  0  0  0  0  0
   -2.7580   -0.1967    0.0259 C   0  0  0  0  0  0  0  0  0  0  0  0
   -1.8479    0.8572   -0.1044 C   0  0  0  0  0  0  0  0  0  0  0  0
   -2.2178    2.0405   -0.7535 C   0  0  0  0  0  0  0  0  0  0  0  0
   -3.4982    2.1775   -1.3151 C   0  0  0  0  0  0  0  0  0  0  0  0
   -4.4056    1.1231   -1.1831 C   0  0  0  0  0  0  0  0  0  0  0  0
   -4.0367   -0.0551   -0.5221 C   0  0  0  0  0  0  0  0  0  0  0  0
   -3.7549    3.3550   -1.9697 O   0  0  0  0  0  0  0  0  0  0  0  0
   -5.0452    3.5145   -2.5451 C   0  0  0  0  0  0  0  0  0  0  0  0
   -1.2387    3.0582   -0.9239 N   0  0  0  0  0  0  0  0  0  0  0  0
   -0.8143    4.0676    0.3365 S   0  0  0  0  0  0  0  0  0  0  0  0
   -0.8704    3.3485    1.5917 O   0  0  0  0  0  0  0  0  0  0  0  0
    0.3991    4.7432   -0.0772 O   0  0  0  0  0  0  0  0  0  0  0  0
   -2.1166    5.2810    0.3305 C   0  0  0  0  0  0  0  0  0  0  0  0
   -3.2646    5.0722    1.0989 C   0  0  0  0  0  0  0  0  0  0  0  0
   -4.2676    6.0444    1.1118 C   0  0  0  0  0  0  0  0  0  0  0  0
   -4.1158    7.2182    0.3684 C   0  0  0  0  0  0  0  0  0  0  0  0
   -2.9520    7.4441   -0.3651 C   0  0  0  0  0  0  0  0  0  0  0  0
   -1.9483    6.4715   -0.3889 C   0  0  0  0  0  0  0  0  0  0  0  0
   -5.1375    8.2084    0.4051 N   0  0  0  0  0  0  0  0  0  0  0  0
   -5.0721    9.3588    1.6469 S   0  0  0  0  0  0  0  0  0  0  0  0
   -6.4432    9.7639    1.8751 O   0  0  0  0  0  0  0  0  0  0  0  0
   -4.2446    8.8793    2.7311 O   0  0  0  0  0  0  0  0  0  0  0  0
   -4.2488   10.7208    0.8584 C   0  0  0  0  0  0  0  0  0  0  0  0
   -4.9959   11.6092    0.0756 C   0  0  0  0  0  0  0  0  0  0  0  0
   -4.3700   12.7248   -0.4810 C   0  0  0  0  0  0  0  0  0  0  0  0
   -3.0032   12.9373   -0.2654 C   0  0  0  0  0  0  0  0  0  0  0  0
   -2.2708   12.0606    0.5389 C   0  0  0  0  0  0  0  0  0  0  0  0
   -2.8919   10.9478    1.1051 C   0  0  0  0  0  0  0  0  0  0  0  0
   -2.3455   14.0394   -0.7422 O   0  0  0  0  0  0  0  0  0  0  0  0
   -1.9671   13.8679   -2.1092 C   0  0  0  0  0  0  0  0  0  0  0  0
   -5.3223   13.8292   -1.4006 Cl  0  0  0  0  0  0  0  0  0  0  0  0
   -1.4277   -1.3577    1.2632 H   0  0  0  0  0  0  0  0  0  0  0  0
   -2.2017   -2.2598   -0.0526 H   0  0  0  0  0  0  0  0  0  0  0  0
   -3.1285   -1.8029    1.4001 H   0  0  0  0  0  0  0  0  0  0  0  0
   -0.8426    0.7587    0.3005 H   0  0  0  0  0  0  0  0  0  0  0  0
   -5.4079    1.1762   -1.5938 H   0  0  0  0  0  0  0  0  0  0  0  0
   -4.7561   -0.8686   -0.4477 H   0  0  0  0  0  0  0  0  0  0  0  0
   -5.0698    4.4857   -3.0474 H   0  0  0  0  0  0  0  0  0  0  0  0
   -5.8253    3.5214   -1.7771 H   0  0  0  0  0  0  0  0  0  0  0  0
   -5.2445    2.7480   -3.3010 H   0  0  0  0  0  0  0  0  0  0  0  0
   -0.6232    3.0384   -1.7318 H   0  0  0  0  0  0  0  0  0  0  0  0
   -3.3831    4.1634    1.6852 H   0  0  0  0  0  0  0  0  0  0  0  0
   -5.1551    5.8855    1.7183 H   0  0  0  0  0  0  0  0  0  0  0  0
   -2.8248    8.3603   -0.9347 H   0  0  0  0  0  0  0  0  0  0  0  0
   -1.0426    6.6472   -0.9656 H   0  0  0  0  0  0  0  0  0  0  0  0
   -6.0954    7.8663    0.3199 H   0  0  0  0  0  0  0  0  0  0  0  0
   -6.0601   11.4445   -0.0778 H   0  0  0  0  0  0  0  0  0  0  0  0
   -1.2209   12.2580    0.7381 H   0  0  0  0  0  0  0  0  0  0  0  0
   -2.3221   10.2803    1.7491 H   0  0  0  0  0  0  0  0  0  0  0  0
   -0.8931   14.0626   -2.1907 H   0  0  0  0  0  0  0  0  0  0  0  0
   -2.4963   14.6070   -2.7182 H   0  0  0  0  0  0  0  0  0  0  0  0
   -2.1685   12.8642   -2.5042 H   0  0  0  0  0  0  0  0  0  0  0  0
  1  2  1  0  0  0  0
  1 33  1  0  0  0  0
  1 34  1  0  0  0  0
  1 35  1  0  0  0  0
  2  3  2  0  0  0  0
  2  7  1  0  0  0  0
  3  4  1  0  0  0  0
  3 36  1  0  0  0  0
  4  5  2  0  0  0  0
  4 10  1  0  0  0  0
  5  6  1  0  0  0  0
  5  8  1  0  0  0  0
  6  7  2  0  0  0  0
  6 37  1  0  0  0  0
  7 38  1  0  0  0  0
  8  9  1  0  0  0  0
  9 39  1  0  0  0  0
  9 40  1  0  0  0  0
  9 41  1  0  0  0  0
 10 11  1  0  0  0  0
 10 42  1  0  0  0  0
 11 12  2  0  0  0  0
 11 13  2  0  0  0  0
 11 14  1  0  0  0  0
 14 15  2  0  0  0  0
 14 19  1  0  0  0  0
 15 16  1  0  0  0  0
 15 43  1  0  0  0  0
 16 17  2  0  0  0  0
 16 44  1  0  0  0  0
 17 18  1  0  0  0  0
 17 20  1  0  0  0  0
 18 19  2  0  0  0  0
 18 45  1  0  0  0  0
 19 46  1  0  0  0  0
 20 21  1  0  0  0  0
 20 47  1  0  0  0  0
 21 22  2  0  0  0  0
 21 23  2  0  0  0  0
 21 24  1  0  0  0  0
 24 25  2  0  0  0  0
 24 29  1  0  0  0  0
 25 26  1  0  0  0  0
 25 48  1  0  0  0  0
 26 27  2  0  0  0  0
 26 32  1  0  0  0  0
 27 28  1  0  0  0  0
 27 30  1  0  0  0  0
 28 29  2  0  0  0  0
 28 49  1  0  0  0  0
 29 50  1  0  0  0  0
 30 31  1  0  0  0  0
 31 51  1  0  0  0  0
 31 52  1  0  0  0  0
 31 53  1  0  0  0  0
M  END
