
 OpenBabel10072619583D

 54 57  0  0  0  0  0  0  0  0999 V2000
    1.6077   -0.2296    0.4147 C   0  0  0  0  0  0  0  0  0  0  0  0
    2.0024    0.8864   -0.5472 C   0  0  0  0  0  0  0  0  0  0  0  0
    2.3113    0.4320   -1.9732 C   0  0  0  0  0  0  0  0  0  0  0  0
    1.4809   -0.2687   -2.8015 C   0  0  0  0  0  0  0  0  0  0  0  0
    1.9692   -0.7974   -4.1232 C   0  0  0  0  0  0  0  0  0  0  0  0
    3.0951   -1.6320   -4.1987 C   0  0  0  0  0  0  0  0  0  0  0  0
    3.5374   -2.1548   -5.4208 C   0  0  0  0  0  0  0  0  0  0  0  0
    2.8418   -1.8743   -6.5940 C   0  0  0  0  0  0  0  0  0  0  0  0
    1.6907   -1.0863   -6.5279 C   0  0  0  0  0  0  0  0  0  0  0  0
    1.2576   -0.5487   -5.3061 C   0  0  0  0  0  0  0  0  0  0  0  0
    3.1673   -2.3398   -7.8390 O   0  0  0  0  0  0  0  0  0  0  0  0
    4.5032   -2.8025   -8.0019 C   0  0  0  0  0  0  0  0  0  0  0  0
    0.0608   -0.4902   -2.4165 C   0  0  0  0  0  0  0  0  0  0  0  0
   -0.8121    0.5930   -2.2437 C   0  0  0  0  0  0  0  0  0  0  0  0
   -2.1688    0.3813   -1.9833 C   0  0  0  0  0  0  0  0  0  0  0  0
   -2.6756   -0.9164   -1.9354 C   0  0  0  0  0  0  0  0  0  0  0  0
   -1.8118   -1.9978   -2.1190 C   0  0  0  0  0  0  0  0  0  0  0  0
   -0.4510   -1.7905   -2.3486 C   0  0  0  0  0  0  0  0  0  0  0  0
   -3.9842   -1.2652   -1.7517 O   0  0  0  0  0  0  0  0  0  0  0  0
   -4.9129   -0.2052   -1.5775 C   0  0  0  0  0  0  0  0  0  0  0  0
    3.6140    0.8970   -2.3748 C   0  0  0  0  0  0  0  0  0  0  0  0
    4.8087    0.4326   -1.8697 C   0  0  0  0  0  0  0  0  0  0  0  0
    5.8167    1.1144   -2.5027 N   0  0  0  0  0  0  0  0  0  0  0  0
    5.2927    2.0392   -3.3831 C   0  0  0  0  0  0  0  0  0  0  0  0
    5.9426    2.9612   -4.2172 C   0  0  0  0  0  0  0  0  0  0  0  0
    5.1491    3.8336   -4.9699 C   0  0  0  0  0  0  0  0  0  0  0  0
    3.7596    3.7736   -4.9043 C   0  0  0  0  0  0  0  0  0  0  0  0
    3.1238    2.8311   -4.0855 C   0  0  0  0  0  0  0  0  0  0  0  0
    3.9023    1.9429   -3.3085 C   0  0  0  0  0  0  0  0  0  0  0  0
    1.8125    0.0892    1.4429 H   0  0  0  0  0  0  0  0  0  0  0  0
    2.1711   -1.1508    0.2264 H   0  0  0  0  0  0  0  0  0  0  0  0
    0.5361   -0.4496    0.3585 H   0  0  0  0  0  0  0  0  0  0  0  0
    2.8914    1.3618   -0.1050 H   0  0  0  0  0  0  0  0  0  0  0  0
    1.2315    1.6653   -0.5546 H   0  0  0  0  0  0  0  0  0  0  0  0
    3.6439   -1.8883   -3.2965 H   0  0  0  0  0  0  0  0  0  0  0  0
    4.4158   -2.7898   -5.4156 H   0  0  0  0  0  0  0  0  0  0  0  0
    1.1283   -0.8832   -7.4367 H   0  0  0  0  0  0  0  0  0  0  0  0
    0.3572    0.0622   -5.2900 H   0  0  0  0  0  0  0  0  0  0  0  0
    4.6407   -3.0747   -9.0520 H   0  0  0  0  0  0  0  0  0  0  0  0
    4.6910   -3.7008   -7.4066 H   0  0  0  0  0  0  0  0  0  0  0  0
    5.2219   -2.0126   -7.7606 H   0  0  0  0  0  0  0  0  0  0  0  0
   -0.4457    1.6133   -2.3328 H   0  0  0  0  0  0  0  0  0  0  0  0
   -2.8020    1.2522   -1.8557 H   0  0  0  0  0  0  0  0  0  0  0  0
   -2.2079   -3.0104   -2.1134 H   0  0  0  0  0  0  0  0  0  0  0  0
    0.1991   -2.6480   -2.5037 H   0  0  0  0  0  0  0  0  0  0  0  0
   -5.9036   -0.6471   -1.4373 H   0  0  0  0  0  0  0  0  0  0  0  0
   -4.9508    0.4347   -2.4649 H   0  0  0  0  0  0  0  0  0  0  0  0
   -4.6822    0.3719   -0.6776 H   0  0  0  0  0  0  0  0  0  0  0  0
    5.0246   -0.3180   -1.1170 H   0  0  0  0  0  0  0  0  0  0  0  0
    6.8033    0.9936   -2.3315 H   0  0  0  0  0  0  0  0  0  0  0  0
    7.0242    3.0163   -4.2724 H   0  0  0  0  0  0  0  0  0  0  0  0
    5.6262    4.5724   -5.6113 H   0  0  0  0  0  0  0  0  0  0  0  0
    3.1602    4.4614   -5.4963 H   0  0  0  0  0  0  0  0  0  0  0  0
    2.0378    2.7977   -4.0471 H   0  0  0  0  0  0  0  0  0  0  0  0
  1  2  1  0  0  0  0
  1 30  1  0  0  0  0
  1 31  1  0  0  0  0
  1 32  1  0  0  0  0
  2  3  1  0  0  0  0
  2 33  1  0  0  0  0
  2 34  1  0  0  0  0
  3  4  2  0  0  0  0
  3 21  1  0  0  0  0
  4  5  1  0  0  0  0
  4 13  1  0  0  0  0
  5  6  2  0  0  0  0
  5 10  1  0  0  0  0
  6  7  1  0  0  0  0
  6 35  1  0  0  0  0
  7  8  2  0  0  0  0
  7 36  1  0  0  0  0
  8  9  1  0  0  0  0
  8 11  1  0  0  0  0
  9 10  2  0  0  0  0
  9 37  1  0  0  0  0
 10 38  1  0  0  0  0
 11 12  1  0  0  0  0
 12 39  1  0  0  0  0
 12 40  1  0  0  0  0
 12 41  1  0  0  0  0
 13 14  2  0  0  0  0
 13 18  1  0  0  0  0
 14 15  1  0  0  0  0
 14 42  1  0  0  0  0
 15 16  2  0  0  0  0
 15 43  1  0  0  0  0
 16 17  1  0  0  0  0
 16 19  1  0  0  0  0
 17 18  2  0  0  0  0
 17 44  1  0  0  0  0
 18 45  1  0  0  0  0
 19 20  1  0  0  0  0
 20 46  1  0  0  0  0
 20 47  1  0  0  0  0
 20 48  1  0  0  0  0
 21 22  2  0  0  0  0
 21 29  1  0  0  0  0
 22 23  1  0  0  0  0
 22 49  1  0  0  0  0
 23 24  1  0  0  0  0
 23 50  1  0  0  0  0
 24 25  2  0  0  0  0
 24 29  1  0  0  0  0
 25 26  1  0  0  0  0
 25 51  1  0  0  0  0
 26 27  2  0  0  0  0
 26 52  1  0  0  0  0
 27 28  1  0  0  0  0
 27 53  1  0  0  0  0
 28 29  2  0  0  0  0
 28 54  1  0  0  0  0
M  END
