
 OpenBabel10072619483D

 44 46  0  0  0  0  0  0  0  0999 V2000
   -3.5292    0.4198    3.8358 C   0  0  0  0  0  0  0  0  0  0  0  0
   -4.0828    1.3924    2.8373 C   0  0  0  0  0  0  0  0  0  0  0  0
   -3.2607    1.9537    1.8546 C   0  0  0  0  0  0  0  0  0  0  0  0
   -3.7901    2.8730    0.9386 C   0  0  0  0  0  0  0  0  0  0  0  0
   -5.1349    3.2355    0.9881 C   0  0  0  0  0  0  0  0  0  0  0  0
   -5.9564    2.6772    1.9668 C   0  0  0  0  0  0  0  0  0  0  0  0
   -5.4340    1.7589    2.8831 C   0  0  0  0  0  0  0  0  0  0  0  0
   -2.7401    3.4775   -0.3576 S   0  0  0  0  0  0  0  0  0  0  0  0
   -2.0321    2.3197   -0.8725 O   0  0  0  0  0  0  0  0  0  0  0  0
   -3.5007    4.3346   -1.2402 O   0  0  0  0  0  0  0  0  0  0  0  0
   -1.5743    4.3499    0.4912 N   0  0  0  0  0  0  0  0  0  0  0  0
   -1.5299    5.7684    0.3607 C   0  0  0  0  0  0  0  0  0  0  0  0
   -2.5607    6.6115    0.7336 C   0  0  0  0  0  0  0  0  0  0  0  0
   -2.4341    7.9942    0.6581 C   0  0  0  0  0  0  0  0  0  0  0  0
   -1.2643    8.5956    0.2079 C   0  0  0  0  0  0  0  0  0  0  0  0
   -0.2246    7.7473   -0.1922 C   0  0  0  0  0  0  0  0  0  0  0  0
   -0.3527    6.3504   -0.1128 C   0  0  0  0  0  0  0  0  0  0  0  0
   -1.0997   10.0844    0.1850 C   0  0  0  0  0  0  0  0  0  0  0  0
   -3.6568    8.6260    1.2054 C   0  0  0  0  0  0  0  0  0  0  0  0
   -4.5790    7.3994    1.3027 C   0  0  0  0  0  0  0  0  0  0  0  0
   -3.7613    6.2010    1.2530 O   0  0  0  0  0  0  0  0  0  0  0  0
   -5.5766    7.3467    0.1425 C   0  0  0  0  0  0  0  0  0  0  0  0
   -5.3415    7.3876    2.6263 C   0  0  0  0  0  0  0  0  0  0  0  0
   -2.4808    0.1834    3.6254 H   0  0  0  0  0  0  0  0  0  0  0  0
   -4.0943   -0.5172    3.8089 H   0  0  0  0  0  0  0  0  0  0  0  0
   -3.5819    0.8460    4.8426 H   0  0  0  0  0  0  0  0  0  0  0  0
   -2.2133    1.6683    1.7903 H   0  0  0  0  0  0  0  0  0  0  0  0
   -5.5460    3.9396    0.2697 H   0  0  0  0  0  0  0  0  0  0  0  0
   -7.0068    2.9512    2.0138 H   0  0  0  0  0  0  0  0  0  0  0  0
   -6.0917    1.3258    3.6341 H   0  0  0  0  0  0  0  0  0  0  0  0
   -0.6794    3.8762    0.3877 H   0  0  0  0  0  0  0  0  0  0  0  0
    0.7099    8.1647   -0.5596 H   0  0  0  0  0  0  0  0  0  0  0  0
    0.4793    5.7271   -0.4258 H   0  0  0  0  0  0  0  0  0  0  0  0
   -1.1264   10.4890    1.2021 H   0  0  0  0  0  0  0  0  0  0  0  0
   -1.8949   10.5481   -0.4062 H   0  0  0  0  0  0  0  0  0  0  0  0
   -0.1448   10.3739   -0.2673 H   0  0  0  0  0  0  0  0  0  0  0  0
   -4.0679    9.4098    0.5633 H   0  0  0  0  0  0  0  0  0  0  0  0
   -3.4278    9.0494    2.1883 H   0  0  0  0  0  0  0  0  0  0  0  0
   -5.0718    7.4380   -0.8260 H   0  0  0  0  0  0  0  0  0  0  0  0
   -6.3202    8.1466    0.2235 H   0  0  0  0  0  0  0  0  0  0  0  0
   -6.0970    6.3835    0.1284 H   0  0  0  0  0  0  0  0  0  0  0  0
   -4.6515    7.2945    3.4714 H   0  0  0  0  0  0  0  0  0  0  0  0
   -6.0117    6.5238    2.6744 H   0  0  0  0  0  0  0  0  0  0  0  0
   -5.9378    8.2971    2.7591 H   0  0  0  0  0  0  0  0  0  0  0  0
  1  2  1  0  0  0  0
  1 24  1  0  0  0  0
  1 25  1  0  0  0  0
  1 26  1  0  0  0  0
  2  3  2  0  0  0  0
  2  7  1  0  0  0  0
  3  4  1  0  0  0  0
  3 27  1  0  0  0  0
  4  5  2  0  0  0  0
  4  8  1  0  0  0  0
  5  6  1  0  0  0  0
  5 28  1  0  0  0  0
  6  7  2  0  0  0  0
  6 29  1  0  0  0  0
  7 30  1  0  0  0  0
  8  9  2  0  0  0  0
  8 10  2  0  0  0  0
  8 11  1  0  0  0  0
 11 12  1  0  0  0  0
 11 31  1  0  0  0  0
 12 13  2  0  0  0  0
 12 17  1  0  0  0  0
 13 14  1  0  0  0  0
 13 21  1  0  0  0  0
 14 15  2  0  0  0  0
 14 19  1  0  0  0  0
 15 16  1  0  0  0  0
 15 18  1  0  0  0  0
 16 17  2  0  0  0  0
 16 32  1  0  0  0  0
 17 33  1  0  0  0  0
 18 34  1  0  0  0  0
 18 35  1  0  0  0  0
 18 36  1  0  0  0  0
 19 20  1  0  0  0  0
 19 37  1  0  0  0  0
 19 38  1  0  0  0  0
 20 21  1  0  0  0  0
 20 22  1  0  0  0  0
 20 23  1  0  0  0  0
 22 39  1  0  0  0  0
 22 40  1  0  0  0  0
 22 41  1  0  0  0  0
 23 42  1  0  0  0  0
 23 43  1  0  0  0  0
 23 44  1  0  0  0  0
M  END
