
 OpenBabel10072616333D

 53 55  0  0  0  0  0  0  0  0999 V2000
   -3.0854   -5.7826    4.3662 C   0  0  0  0  0  0  0  0  0  0  0  0
   -3.6213   -5.2425    3.0724 C   0  0  0  0  0  0  0  0  0  0  0  0
   -2.7643   -4.5986    2.1649 C   0  0  0  0  0  0  0  0  0  0  0  0
   -3.2818   -4.0568    0.9697 C   0  0  0  0  0  0  0  0  0  0  0  0
   -4.6486   -4.1785    0.7221 C   0  0  0  0  0  0  0  0  0  0  0  0
   -5.5248   -4.8215    1.6027 C   0  0  0  0  0  0  0  0  0  0  0  0
   -4.9856   -5.3482    2.7815 C   0  0  0  0  0  0  0  0  0  0  0  0
   -4.8986   -3.5579   -0.4786 N   0  0  0  0  0  0  0  0  0  0  0  0
   -3.7378   -3.0620   -1.0059 C   0  0  0  0  0  0  0  0  0  0  0  0
   -2.7047   -3.3513   -0.1341 C   0  0  0  0  0  0  0  0  0  0  0  0
   -1.2636   -2.9760   -0.3136 C   0  0  0  0  0  0  0  0  0  0  0  0
   -0.5502   -3.8292   -1.3669 C   0  0  0  0  0  0  0  0  0  0  0  0
   -0.3160   -5.2112   -0.9335 N   0  0  0  0  0  0  0  0  0  0  0  0
    0.8373   -5.7285   -0.3435 C   0  0  0  0  0  0  0  0  0  0  0  0
    2.1612   -4.7833    0.0389 S   0  0  0  0  0  0  0  0  0  0  0  0
    0.6940   -7.1085   -0.2110 N   0  0  0  0  0  0  0  0  0  0  0  0
    1.5035   -8.1238    0.3615 C   0  0  0  0  0  0  0  0  0  0  0  0
    2.6241   -7.9166    1.1696 C   0  0  0  0  0  0  0  0  0  0  0  0
    3.3580   -8.9960    1.6857 C   0  0  0  0  0  0  0  0  0  0  0  0
    2.9605  -10.3115    1.3874 C   0  0  0  0  0  0  0  0  0  0  0  0
    1.8533  -10.5369    0.5656 C   0  0  0  0  0  0  0  0  0  0  0  0
    1.1134   -9.4459    0.0938 C   0  0  0  0  0  0  0  0  0  0  0  0
    1.3593  -11.7647    0.2103 O   0  0  0  0  0  0  0  0  0  0  0  0
    2.3502  -12.6951   -0.2228 C   0  0  0  0  0  0  0  0  0  0  0  0
    3.6765  -11.3687    1.8908 O   0  0  0  0  0  0  0  0  0  0  0  0
    3.3197  -11.6219    3.2507 C   0  0  0  0  0  0  0  0  0  0  0  0
    4.4702   -8.8736    2.4828 O   0  0  0  0  0  0  0  0  0  0  0  0
    4.7684   -7.5864    3.0084 C   0  0  0  0  0  0  0  0  0  0  0  0
   -1.9926   -5.7186    4.4031 H   0  0  0  0  0  0  0  0  0  0  0  0
   -3.3618   -6.8353    4.4836 H   0  0  0  0  0  0  0  0  0  0  0  0
   -3.4876   -5.2063    5.2058 H   0  0  0  0  0  0  0  0  0  0  0  0
   -1.7044   -4.5014    2.3835 H   0  0  0  0  0  0  0  0  0  0  0  0
   -6.5865   -4.9029    1.3923 H   0  0  0  0  0  0  0  0  0  0  0  0
   -5.6521   -5.8443    3.4847 H   0  0  0  0  0  0  0  0  0  0  0  0
   -5.8135   -3.4710   -0.8987 H   0  0  0  0  0  0  0  0  0  0  0  0
   -3.7457   -2.5406   -1.9540 H   0  0  0  0  0  0  0  0  0  0  0  0
   -0.7362   -3.0275    0.6448 H   0  0  0  0  0  0  0  0  0  0  0  0
   -1.2245   -1.9256   -0.6266 H   0  0  0  0  0  0  0  0  0  0  0  0
    0.3983   -3.3595   -1.6429 H   0  0  0  0  0  0  0  0  0  0  0  0
   -1.1534   -3.8940   -2.2797 H   0  0  0  0  0  0  0  0  0  0  0  0
   -1.1576   -5.7657   -0.8556 H   0  0  0  0  0  0  0  0  0  0  0  0
   -0.0896   -7.4711   -0.7382 H   0  0  0  0  0  0  0  0  0  0  0  0
    2.9356   -6.9153    1.4219 H   0  0  0  0  0  0  0  0  0  0  0  0
    0.2334   -9.6537   -0.5111 H   0  0  0  0  0  0  0  0  0  0  0  0
    1.8753  -13.3660   -0.9454 H   0  0  0  0  0  0  0  0  0  0  0  0
    2.6899  -13.3059    0.6184 H   0  0  0  0  0  0  0  0  0  0  0  0
    3.1957  -12.2138   -0.7274 H   0  0  0  0  0  0  0  0  0  0  0  0
    4.2325  -11.8854    3.7936 H   0  0  0  0  0  0  0  0  0  0  0  0
    2.6398  -12.4790    3.2807 H   0  0  0  0  0  0  0  0  0  0  0  0
    2.8507  -10.7698    3.7584 H   0  0  0  0  0  0  0  0  0  0  0  0
    5.6106   -7.7003    3.6989 H   0  0  0  0  0  0  0  0  0  0  0  0
    3.9220   -7.1882    3.5788 H   0  0  0  0  0  0  0  0  0  0  0  0
    5.0779   -6.9005    2.2131 H   0  0  0  0  0  0  0  0  0  0  0  0
  1  2  1  0  0  0  0
  1 29  1  0  0  0  0
  1 30  1  0  0  0  0
  1 31  1  0  0  0  0
  2  3  2  0  0  0  0
  2  7  1  0  0  0  0
  3  4  1  0  0  0  0
  3 32  1  0  0  0  0
  4  5  2  0  0  0  0
  4 10  1  0  0  0  0
  5  6  1  0  0  0  0
  5  8  1  0  0  0  0
  6  7  2  0  0  0  0
  6 33  1  0  0  0  0
  7 34  1  0  0  0  0
  8  9  1  0  0  0  0
  8 35  1  0  0  0  0
  9 10  2  0  0  0  0
  9 36  1  0  0  0  0
 10 11  1  0  0  0  0
 11 12  1  0  0  0  0
 11 37  1  0  0  0  0
 11 38  1  0  0  0  0
 12 13  1  0  0  0  0
 12 39  1  0  0  0  0
 12 40  1  0  0  0  0
 13 14  1  0  0  0  0
 13 41  1  0  0  0  0
 14 15  2  0  0  0  0
 14 16  1  0  0  0  0
 16 17  1  0  0  0  0
 16 42  1  0  0  0  0
 17 18  2  0  0  0  0
 17 22  1  0  0  0  0
 18 19  1  0  0  0  0
 18 43  1  0  0  0  0
 19 20  2  0  0  0  0
 19 27  1  0  0  0  0
 20 21  1  0  0  0  0
 20 25  1  0  0  0  0
 21 22  2  0  0  0  0
 21 23  1  0  0  0  0
 22 44  1  0  0  0  0
 23 24  1  0  0  0  0
 24 45  1  0  0  0  0
 24 46  1  0  0  0  0
 24 47  1  0  0  0  0
 25 26  1  0  0  0  0
 26 48  1  0  0  0  0
 26 49  1  0  0  0  0
 26 50  1  0  0  0  0
 27 28  1  0  0  0  0
 28 51  1  0  0  0  0
 28 52  1  0  0  0  0
 28 53  1  0  0  0  0
M  END
