
 OpenBabel10072619573D

 52 55  0  0  0  0  0  0  0  0999 V2000
    2.9698    0.7566    0.9032 C   0  0  0  0  0  0  0  0  0  0  0  0
    2.3087   -0.2602    0.1501 O   0  0  0  0  0  0  0  0  0  0  0  0
    3.1652   -1.0529   -0.5764 C   0  0  0  0  0  0  0  0  0  0  0  0
    2.9258   -1.2726   -1.9532 C   0  0  0  0  0  0  0  0  0  0  0  0
    3.8490   -2.0810   -2.6412 C   0  0  0  0  0  0  0  0  0  0  0  0
    4.9591   -2.6473   -2.0018 C   0  0  0  0  0  0  0  0  0  0  0  0
    5.1597   -2.4324   -0.6466 C   0  0  0  0  0  0  0  0  0  0  0  0
    4.2559   -1.6563    0.0705 C   0  0  0  0  0  0  0  0  0  0  0  0
    6.2825   -3.0140   -0.0007 N   0  0  0  0  0  0  0  0  0  0  0  0
    6.0553   -4.2865    1.0839 S   0  0  0  0  0  0  0  0  0  0  0  0
    7.3837   -4.6904    1.4977 O   0  0  0  0  0  0  0  0  0  0  0  0
    5.0538   -3.9215    2.0630 O   0  0  0  0  0  0  0  0  0  0  0  0
    5.3944   -5.5925    0.0679 C   0  0  0  0  0  0  0  0  0  0  0  0
    4.0110   -5.7444   -0.0721 C   0  0  0  0  0  0  0  0  0  0  0  0
    3.4909   -6.8450   -0.7747 C   0  0  0  0  0  0  0  0  0  0  0  0
    4.3724   -7.8161   -1.2886 C   0  0  0  0  0  0  0  0  0  0  0  0
    3.8619   -9.0611   -1.9758 C   0  0  0  0  0  0  0  0  0  0  0  0
    2.3953   -9.3547   -1.6649 C   0  0  0  0  0  0  0  0  0  0  0  0
    1.5572   -8.0990   -1.8575 C   0  0  0  0  0  0  0  0  0  0  0  0
    1.9928   -7.0062   -0.8812 C   0  0  0  0  0  0  0  0  0  0  0  0
    5.7586   -7.6261   -1.1731 C   0  0  0  0  0  0  0  0  0  0  0  0
    6.2717   -6.5235   -0.4922 C   0  0  0  0  0  0  0  0  0  0  0  0
    1.8119   -0.7104   -2.6519 N   0  0  0  0  0  0  0  0  0  0  0  0
    0.6801   -0.1040   -1.9893 C   0  0  0  0  0  0  0  0  0  0  0  0
   -0.3834   -0.0258   -3.0657 C   0  0  0  0  0  0  0  0  0  0  0  0
    0.4225    0.1957   -4.3284 C   0  0  0  0  0  0  0  0  0  0  0  0
    1.7071   -0.5482   -4.0441 C   0  0  0  0  0  0  0  0  0  0  0  0
    2.5000   -0.8561   -4.9214 O   0  0  0  0  0  0  0  0  0  0  0  0
    2.2274    1.5233    1.1444 H   0  0  0  0  0  0  0  0  0  0  0  0
    3.7699    1.2355    0.3280 H   0  0  0  0  0  0  0  0  0  0  0  0
    3.3543    0.3551    1.8456 H   0  0  0  0  0  0  0  0  0  0  0  0
    3.7199   -2.3134   -3.6949 H   0  0  0  0  0  0  0  0  0  0  0  0
    5.6419   -3.2644   -2.5793 H   0  0  0  0  0  0  0  0  0  0  0  0
    4.4101   -1.5093    1.1358 H   0  0  0  0  0  0  0  0  0  0  0  0
    7.1343   -3.1273   -0.5472 H   0  0  0  0  0  0  0  0  0  0  0  0
    3.3371   -5.0208    0.3855 H   0  0  0  0  0  0  0  0  0  0  0  0
    4.4585   -9.9268   -1.6628 H   0  0  0  0  0  0  0  0  0  0  0  0
    3.9919   -8.9405   -3.0582 H   0  0  0  0  0  0  0  0  0  0  0  0
    2.0292  -10.1569   -2.3152 H   0  0  0  0  0  0  0  0  0  0  0  0
    2.2924   -9.7089   -0.6313 H   0  0  0  0  0  0  0  0  0  0  0  0
    0.4953   -8.3223   -1.7051 H   0  0  0  0  0  0  0  0  0  0  0  0
    1.6637   -7.7440   -2.8901 H   0  0  0  0  0  0  0  0  0  0  0  0
    1.6099   -7.2448    0.1180 H   0  0  0  0  0  0  0  0  0  0  0  0
    1.5371   -6.0570   -1.1878 H   0  0  0  0  0  0  0  0  0  0  0  0
    6.4467   -8.3598   -1.5879 H   0  0  0  0  0  0  0  0  0  0  0  0
    7.3480   -6.4193   -0.3731 H   0  0  0  0  0  0  0  0  0  0  0  0
    0.9584    0.9007   -1.6508 H   0  0  0  0  0  0  0  0  0  0  0  0
    0.3221   -0.7176   -1.1573 H   0  0  0  0  0  0  0  0  0  0  0  0
   -1.1210    0.7601   -2.8808 H   0  0  0  0  0  0  0  0  0  0  0  0
   -0.9172   -0.9820   -3.1346 H   0  0  0  0  0  0  0  0  0  0  0  0
    0.6546    1.2545   -4.4804 H   0  0  0  0  0  0  0  0  0  0  0  0
   -0.0817   -0.2097   -5.2090 H   0  0  0  0  0  0  0  0  0  0  0  0
  1  2  1  0  0  0  0
  1 29  1  0  0  0  0
  1 30  1  0  0  0  0
  1 31  1  0  0  0  0
  2  3  1  0  0  0  0
  3  4  2  0  0  0  0
  3  8  1  0  0  0  0
  4  5  1  0  0  0  0
  4 23  1  0  0  0  0
  5  6  2  0  0  0  0
  5 32  1  0  0  0  0
  6  7  1  0  0  0  0
  6 33  1  0  0  0  0
  7  8  2  0  0  0  0
  7  9  1  0  0  0  0
  8 34  1  0  0  0  0
  9 10  1  0  0  0  0
  9 35  1  0  0  0  0
 10 11  2  0  0  0  0
 10 12  2  0  0  0  0
 10 13  1  0  0  0  0
 13 14  2  0  0  0  0
 13 22  1  0  0  0  0
 14 15  1  0  0  0  0
 14 36  1  0  0  0  0
 15 16  2  0  0  0  0
 15 20  1  0  0  0  0
 16 17  1  0  0  0  0
 16 21  1  0  0  0  0
 17 18  1  0  0  0  0
 17 37  1  0  0  0  0
 17 38  1  0  0  0  0
 18 19  1  0  0  0  0
 18 39  1  0  0  0  0
 18 40  1  0  0  0  0
 19 20  1  0  0  0  0
 19 41  1  0  0  0  0
 19 42  1  0  0  0  0
 20 43  1  0  0  0  0
 20 44  1  0  0  0  0
 21 22  2  0  0  0  0
 21 45  1  0  0  0  0
 22 46  1  0  0  0  0
 23 24  1  0  0  0  0
 23 27  1  0  0  0  0
 24 25  1  0  0  0  0
 24 47  1  0  0  0  0
 24 48  1  0  0  0  0
 25 26  1  0  0  0  0
 25 49  1  0  0  0  0
 25 50  1  0  0  0  0
 26 27  1  0  0  0  0
 26 51  1  0  0  0  0
 26 52  1  0  0  0  0
 27 28  2  0  0  0  0
M  END
