
 OpenBabel10072620103D

 54 56  0  0  0  0  0  0  0  0999 V2000
    2.6110    0.7472    0.2865 C   0  0  0  0  0  0  0  0  0  0  0  0
    1.1537    0.4006    0.2133 C   0  0  0  0  0  0  0  0  0  0  0  0
    0.2958    0.7666    1.2565 C   0  0  0  0  0  0  0  0  0  0  0  0
   -1.0745    0.5130    1.1706 C   0  0  0  0  0  0  0  0  0  0  0  0
   -1.6050   -0.1227    0.0476 C   0  0  0  0  0  0  0  0  0  0  0  0
   -0.7566   -0.4570   -1.0136 C   0  0  0  0  0  0  0  0  0  0  0  0
    0.6158   -0.2046   -0.9266 C   0  0  0  0  0  0  0  0  0  0  0  0
   -3.0369   -0.2887   -0.0346 N   0  0  0  0  0  0  0  0  0  0  0  0
   -3.5816   -1.5354   -0.6322 C   0  0  0  0  0  0  0  0  0  0  0  0
   -2.8235   -2.8133   -0.3036 C   0  0  0  0  0  0  0  0  0  0  0  0
   -2.1863   -3.3746   -1.1995 O   0  0  0  0  0  0  0  0  0  0  0  0
   -2.9072   -3.3385    0.9887 N   0  0  0  0  0  0  0  0  0  0  0  0
   -2.0233   -4.4631    1.2934 C   0  0  0  0  0  0  0  0  0  0  0  0
   -2.5491   -5.3440    2.4212 C   0  0  0  0  0  0  0  0  0  0  0  0
   -2.9138   -4.5176    3.6473 C   0  0  0  0  0  0  0  0  0  0  0  0
   -3.9118   -3.4328    3.2601 C   0  0  0  0  0  0  0  0  0  0  0  0
   -3.3818   -2.5537    2.1307 C   0  0  0  0  0  0  0  0  0  0  0  0
   -3.9098    1.1325   -0.4624 S   0  0  0  0  0  0  0  0  0  0  0  0
   -5.2911    0.7605   -0.6905 O   0  0  0  0  0  0  0  0  0  0  0  0
   -3.5853    2.1915    0.4745 O   0  0  0  0  0  0  0  0  0  0  0  0
   -3.2145    1.5824   -2.0415 C   0  0  0  0  0  0  0  0  0  0  0  0
   -3.6922    0.9837   -3.2095 C   0  0  0  0  0  0  0  0  0  0  0  0
   -3.1038    1.2992   -4.4389 C   0  0  0  0  0  0  0  0  0  0  0  0
   -2.0537    2.2180   -4.5000 C   0  0  0  0  0  0  0  0  0  0  0  0
   -1.6189    2.8493   -3.3314 C   0  0  0  0  0  0  0  0  0  0  0  0
   -2.1952    2.5357   -2.0994 C   0  0  0  0  0  0  0  0  0  0  0  0
   -1.3845    2.5892   -5.6338 O   0  0  0  0  0  0  0  0  0  0  0  0
   -1.5539    1.7550   -6.7733 C   0  0  0  0  0  0  0  0  0  0  0  0
    2.9870    0.6051    1.3042 H   0  0  0  0  0  0  0  0  0  0  0  0
    2.7577    1.7928   -0.0031 H   0  0  0  0  0  0  0  0  0  0  0  0
    3.2072    0.1115   -0.3757 H   0  0  0  0  0  0  0  0  0  0  0  0
    0.6892    1.2609    2.1414 H   0  0  0  0  0  0  0  0  0  0  0  0
   -1.7237    0.8245    1.9863 H   0  0  0  0  0  0  0  0  0  0  0  0
   -1.1432   -0.9133   -1.9218 H   0  0  0  0  0  0  0  0  0  0  0  0
    1.2572   -0.4847   -1.7599 H   0  0  0  0  0  0  0  0  0  0  0  0
   -3.6037   -1.4466   -1.7233 H   0  0  0  0  0  0  0  0  0  0  0  0
   -4.6189   -1.6815   -0.3084 H   0  0  0  0  0  0  0  0  0  0  0  0
   -1.0447   -4.0413    1.5531 H   0  0  0  0  0  0  0  0  0  0  0  0
   -1.8791   -5.0812    0.4006 H   0  0  0  0  0  0  0  0  0  0  0  0
   -1.7966   -6.0953    2.6823 H   0  0  0  0  0  0  0  0  0  0  0  0
   -3.4374   -5.8889    2.0765 H   0  0  0  0  0  0  0  0  0  0  0  0
   -2.0118   -4.0644    4.0765 H   0  0  0  0  0  0  0  0  0  0  0  0
   -3.3488   -5.1658    4.4162 H   0  0  0  0  0  0  0  0  0  0  0  0
   -4.1517   -2.8150    4.1322 H   0  0  0  0  0  0  0  0  0  0  0  0
   -4.8444   -3.9092    2.9335 H   0  0  0  0  0  0  0  0  0  0  0  0
   -2.5378   -1.9495    2.4820 H   0  0  0  0  0  0  0  0  0  0  0  0
   -4.1735   -1.8656    1.8227 H   0  0  0  0  0  0  0  0  0  0  0  0
   -4.5066    0.2651   -3.1741 H   0  0  0  0  0  0  0  0  0  0  0  0
   -3.4897    0.8147   -5.3299 H   0  0  0  0  0  0  0  0  0  0  0  0
   -0.8106    3.5757   -3.3799 H   0  0  0  0  0  0  0  0  0  0  0  0
   -1.8248    3.0188   -1.1981 H   0  0  0  0  0  0  0  0  0  0  0  0
   -0.8421    2.0829   -7.5371 H   0  0  0  0  0  0  0  0  0  0  0  0
   -2.5611    1.8596   -7.1879 H   0  0  0  0  0  0  0  0  0  0  0  0
   -1.3309    0.7088   -6.5385 H   0  0  0  0  0  0  0  0  0  0  0  0
  1  2  1  0  0  0  0
  1 29  1  0  0  0  0
  1 30  1  0  0  0  0
  1 31  1  0  0  0  0
  2  3  2  0  0  0  0
  2  7  1  0  0  0  0
  3  4  1  0  0  0  0
  3 32  1  0  0  0  0
  4  5  2  0  0  0  0
  4 33  1  0  0  0  0
  5  6  1  0  0  0  0
  5  8  1  0  0  0  0
  6  7  2  0  0  0  0
  6 34  1  0  0  0  0
  7 35  1  0  0  0  0
  8  9  1  0  0  0  0
  8 18  1  0  0  0  0
  9 10  1  0  0  0  0
  9 36  1  0  0  0  0
  9 37  1  0  0  0  0
 10 11  2  0  0  0  0
 10 12  1  0  0  0  0
 12 13  1  0  0  0  0
 12 17  1  0  0  0  0
 13 14  1  0  0  0  0
 13 38  1  0  0  0  0
 13 39  1  0  0  0  0
 14 15  1  0  0  0  0
 14 40  1  0  0  0  0
 14 41  1  0  0  0  0
 15 16  1  0  0  0  0
 15 42  1  0  0  0  0
 15 43  1  0  0  0  0
 16 17  1  0  0  0  0
 16 44  1  0  0  0  0
 16 45  1  0  0  0  0
 17 46  1  0  0  0  0
 17 47  1  0  0  0  0
 18 19  2  0  0  0  0
 18 20  2  0  0  0  0
 18 21  1  0  0  0  0
 21 22  2  0  0  0  0
 21 26  1  0  0  0  0
 22 23  1  0  0  0  0
 22 48  1  0  0  0  0
 23 24  2  0  0  0  0
 23 49  1  0  0  0  0
 24 25  1  0  0  0  0
 24 27  1  0  0  0  0
 25 26  2  0  0  0  0
 25 50  1  0  0  0  0
 26 51  1  0  0  0  0
 27 28  1  0  0  0  0
 28 52  1  0  0  0  0
 28 53  1  0  0  0  0
 28 54  1  0  0  0  0
M  END
