
 OpenBabel10072620213D

 75 76  0  0  0  0  0  0  0  0999 V2000
   12.3745  -10.4440   -2.9909 C   0  0  0  0  0  0  0  0  0  0  0  0
   11.0830   -9.7366   -2.7012 C   0  0  0  0  0  0  0  0  0  0  0  0
   10.3025  -10.0589   -1.8174 O   0  0  0  0  0  0  0  0  0  0  0  0
   10.9453   -8.6835   -3.6025 O   0  0  0  0  0  0  0  0  0  0  0  0
    9.7440   -7.9570   -3.5675 C   0  0  0  0  0  0  0  0  0  0  0  0
    9.3135   -7.3111   -2.4032 C   0  0  0  0  0  0  0  0  0  0  0  0
    8.1775   -6.4849   -2.4349 C   0  0  0  0  0  0  0  0  0  0  0  0
    7.4686   -6.3446   -3.6387 C   0  0  0  0  0  0  0  0  0  0  0  0
    7.8954   -7.0072   -4.7901 C   0  0  0  0  0  0  0  0  0  0  0  0
    9.0465   -7.7898   -4.7641 C   0  0  0  0  0  0  0  0  0  0  0  0
    9.5429   -8.2754   -5.9789 O   0  0  0  0  0  0  0  0  0  0  0  0
    9.5211   -9.6556   -6.1187 C   0  0  0  0  0  0  0  0  0  0  0  0
    9.1217  -10.4744   -5.3037 O   0  0  0  0  0  0  0  0  0  0  0  0
   10.0597  -10.0023   -7.4751 C   0  0  0  0  0  0  0  0  0  0  0  0
    7.2558   -6.8161   -6.0242 O   0  0  0  0  0  0  0  0  0  0  0  0
    5.8863   -7.0503   -6.0671 C   0  0  0  0  0  0  0  0  0  0  0  0
    5.1740   -7.4134   -5.1413 O   0  0  0  0  0  0  0  0  0  0  0  0
    5.3973   -6.8380   -7.4675 C   0  0  0  0  0  0  0  0  0  0  0  0
    7.6698   -5.7610   -1.2600 C   0  0  0  0  0  0  0  0  0  0  0  0
    8.4082   -5.4124   -0.1958 C   0  0  0  0  0  0  0  0  0  0  0  0
    7.6566   -4.5329    1.0976 S   0  0  0  0  0  0  0  0  0  0  0  0
    8.6876   -4.0631    2.0014 O   0  0  0  0  0  0  0  0  0  0  0  0
    6.7392   -3.5676    0.5110 O   0  0  0  0  0  0  0  0  0  0  0  0
    6.6525   -5.7078    1.9241 C   0  0  0  0  0  0  0  0  0  0  0  0
    7.5744   -6.9993    2.6801 S   0  0  0  0  0  0  0  0  0  0  0  0
    8.3723   -7.6713    1.6718 O   0  0  0  0  0  0  0  0  0  0  0  0
    8.1842   -6.4928    3.8918 O   0  0  0  0  0  0  0  0  0  0  0  0
    6.2955   -8.0744    3.1783 C   0  0  0  0  0  0  0  0  0  0  0  0
    5.7277   -8.8872    2.2748 C   0  0  0  0  0  0  0  0  0  0  0  0
    4.5990   -9.7790    2.5729 C   0  0  0  0  0  0  0  0  0  0  0  0
    3.5676   -9.4095    3.4513 C   0  0  0  0  0  0  0  0  0  0  0  0
    2.4674  -10.2517    3.6410 C   0  0  0  0  0  0  0  0  0  0  0  0
    2.4024  -11.4827    2.9856 C   0  0  0  0  0  0  0  0  0  0  0  0
    3.4263  -11.8513    2.1146 C   0  0  0  0  0  0  0  0  0  0  0  0
    4.5200  -11.0071    1.9015 C   0  0  0  0  0  0  0  0  0  0  0  0
    3.3973  -13.1258    1.5361 O   0  0  0  0  0  0  0  0  0  0  0  0
    3.2411  -13.1344    0.1548 C   0  0  0  0  0  0  0  0  0  0  0  0
    3.1101  -12.1623   -0.5743 O   0  0  0  0  0  0  0  0  0  0  0  0
    3.2223  -14.5583   -0.3173 C   0  0  0  0  0  0  0  0  0  0  0  0
    1.3837  -12.4061    3.2530 O   0  0  0  0  0  0  0  0  0  0  0  0
    0.1205  -12.0254    2.8187 C   0  0  0  0  0  0  0  0  0  0  0  0
   -0.1703  -11.0009    2.2177 O   0  0  0  0  0  0  0  0  0  0  0  0
   -0.8750  -13.0911    3.1768 C   0  0  0  0  0  0  0  0  0  0  0  0
    1.4407   -9.9350    4.5478 O   0  0  0  0  0  0  0  0  0  0  0  0
    0.8599   -8.6710    4.4722 C   0  0  0  0  0  0  0  0  0  0  0  0
    1.2251   -7.7330    3.7761 O   0  0  0  0  0  0  0  0  0  0  0  0
   -0.2923   -8.5969    5.4305 C   0  0  0  0  0  0  0  0  0  0  0  0
   12.5937  -11.1389   -2.1756 H   0  0  0  0  0  0  0  0  0  0  0  0
   13.1926   -9.7210   -3.0508 H   0  0  0  0  0  0  0  0  0  0  0  0
   12.2907  -11.0030   -3.9262 H   0  0  0  0  0  0  0  0  0  0  0  0
    9.8729   -7.4502   -1.4818 H   0  0  0  0  0  0  0  0  0  0  0  0
    6.5898   -5.7054   -3.6863 H   0  0  0  0  0  0  0  0  0  0  0  0
    9.3215   -9.7453   -8.2390 H   0  0  0  0  0  0  0  0  0  0  0  0
   10.2696  -11.0748   -7.5180 H   0  0  0  0  0  0  0  0  0  0  0  0
   10.9968   -9.4657   -7.6513 H   0  0  0  0  0  0  0  0  0  0  0  0
    6.0765   -6.1800   -8.0165 H   0  0  0  0  0  0  0  0  0  0  0  0
    4.4183   -6.3539   -7.4370 H   0  0  0  0  0  0  0  0  0  0  0  0
    5.3313   -7.8020   -7.9758 H   0  0  0  0  0  0  0  0  0  0  0  0
    6.6204   -5.4678   -1.3130 H   0  0  0  0  0  0  0  0  0  0  0  0
    9.4600   -5.6374   -0.0829 H   0  0  0  0  0  0  0  0  0  0  0  0
    5.9518   -6.1305    1.1985 H   0  0  0  0  0  0  0  0  0  0  0  0
    6.0920   -5.1858    2.7047 H   0  0  0  0  0  0  0  0  0  0  0  0
    5.9976   -8.0250    4.2172 H   0  0  0  0  0  0  0  0  0  0  0  0
    6.0968   -8.9302    1.2491 H   0  0  0  0  0  0  0  0  0  0  0  0
    3.6055   -8.4600    3.9780 H   0  0  0  0  0  0  0  0  0  0  0  0
    5.3096  -11.3062    1.2153 H   0  0  0  0  0  0  0  0  0  0  0  0
    4.0552  -15.1094    0.1279 H   0  0  0  0  0  0  0  0  0  0  0  0
    3.3425  -14.5835   -1.4040 H   0  0  0  0  0  0  0  0  0  0  0  0
    2.2708  -15.0220   -0.0470 H   0  0  0  0  0  0  0  0  0  0  0  0
   -0.4698  -13.7604    3.9416 H   0  0  0  0  0  0  0  0  0  0  0  0
   -1.1245  -13.6693    2.2840 H   0  0  0  0  0  0  0  0  0  0  0  0
   -1.7729  -12.6201    3.5873 H   0  0  0  0  0  0  0  0  0  0  0  0
   -0.5054   -9.5771    5.8679 H   0  0  0  0  0  0  0  0  0  0  0  0
   -1.1833   -8.2646    4.8915 H   0  0  0  0  0  0  0  0  0  0  0  0
   -0.0443   -7.8993    6.2340 H   0  0  0  0  0  0  0  0  0  0  0  0
  1  2  1  0  0  0  0
  1 48  1  0  0  0  0
  1 49  1  0  0  0  0
  1 50  1  0  0  0  0
  2  3  2  0  0  0  0
  2  4  1  0  0  0  0
  4  5  1  0  0  0  0
  5  6  2  0  0  0  0
  5 10  1  0  0  0  0
  6  7  1  0  0  0  0
  6 51  1  0  0  0  0
  7  8  2  0  0  0  0
  7 19  1  0  0  0  0
  8  9  1  0  0  0  0
  8 52  1  0  0  0  0
  9 10  2  0  0  0  0
  9 15  1  0  0  0  0
 10 11  1  0  0  0  0
 11 12  1  0  0  0  0
 12 13  2  0  0  0  0
 12 14  1  0  0  0  0
 14 53  1  0  0  0  0
 14 54  1  0  0  0  0
 14 55  1  0  0  0  0
 15 16  1  0  0  0  0
 16 17  2  0  0  0  0
 16 18  1  0  0  0  0
 18 56  1  0  0  0  0
 18 57  1  0  0  0  0
 18 58  1  0  0  0  0
 19 20  2  0  0  0  0
 19 59  1  0  0  0  0
 20 21  1  0  0  0  0
 20 60  1  0  0  0  0
 21 22  2  0  0  0  0
 21 23  2  0  0  0  0
 21 24  1  0  0  0  0
 24 25  1  0  0  0  0
 24 61  1  0  0  0  0
 24 62  1  0  0  0  0
 25 26  2  0  0  0  0
 25 27  2  0  0  0  0
 25 28  1  0  0  0  0
 28 29  2  0  0  0  0
 28 63  1  0  0  0  0
 29 30  1  0  0  0  0
 29 64  1  0  0  0  0
 30 31  2  0  0  0  0
 30 35  1  0  0  0  0
 31 32  1  0  0  0  0
 31 65  1  0  0  0  0
 32 33  2  0  0  0  0
 32 44  1  0  0  0  0
 33 34  1  0  0  0  0
 33 40  1  0  0  0  0
 34 35  2  0  0  0  0
 34 36  1  0  0  0  0
 35 66  1  0  0  0  0
 36 37  1  0  0  0  0
 37 38  2  0  0  0  0
 37 39  1  0  0  0  0
 39 67  1  0  0  0  0
 39 68  1  0  0  0  0
 39 69  1  0  0  0  0
 40 41  1  0  0  0  0
 41 42  2  0  0  0  0
 41 43  1  0  0  0  0
 43 70  1  0  0  0  0
 43 71  1  0  0  0  0
 43 72  1  0  0  0  0
 44 45  1  0  0  0  0
 45 46  2  0  0  0  0
 45 47  1  0  0  0  0
 47 73  1  0  0  0  0
 47 74  1  0  0  0  0
 47 75  1  0  0  0  0
M  END
