
 OpenBabel10072619523D

 86 90  0  0  1  0  0  0  0  0999 V2000
    2.5866   -2.7412   -0.5962 C   0  0  0  0  0  0  0  0  0  0  0  0
    2.3478   -1.4105    0.1234 C   0  0  0  0  0  0  0  0  0  0  0  0
    2.5683   -0.2108   -0.8047 C   0  0  0  0  0  0  0  0  0  0  0  0
    0.8980   -1.3747    0.6357 C   0  0  0  0  0  0  0  0  0  0  0  0
    3.1718   -1.2873    1.3101 O   0  0  0  0  0  0  0  0  0  0  0  0
    4.5173   -1.1922    1.2181 C   0  0  0  0  0  0  0  0  0  0  0  0
    5.1929   -1.3436    0.2130 O   0  0  0  0  0  0  0  0  0  0  0  0
    4.9989   -0.8707    2.4439 N   0  0  0  0  0  0  0  0  0  0  0  0
    6.4137   -0.8982    2.8025 C   0  0  1  0  0  0  0  0  0  0  0  0
    6.8119    0.3859    3.5703 C   0  0  0  0  0  0  0  0  0  0  0  0
    6.0392    0.5913    4.8903 C   0  0  0  0  0  0  0  0  0  0  0  0
    6.4593    1.8879    5.5867 C   0  0  0  0  0  0  0  0  0  0  0  0
    6.2904    3.0976    4.6727 C   0  0  0  0  0  0  0  0  0  0  0  0
    7.0438    2.9154    3.3601 C   0  0  0  0  0  0  0  0  0  0  0  0
    6.6371    1.6222    2.6598 C   0  0  0  0  0  0  0  0  0  0  0  0
    6.6158   -2.1994    3.6172 C   0  0  0  0  0  0  0  0  0  0  0  0
    5.6524   -2.7702    4.1472 O   0  0  0  0  0  0  0  0  0  0  0  0
    7.8854   -2.7012    3.7998 N   0  0  0  0  0  0  0  0  0  0  0  0
    9.1193   -2.2716    3.1494 C   0  0  0  0  0  0  0  0  0  0  0  0
   10.2095   -3.1667    3.7563 C   0  0  1  0  0  0  0  0  0  0  0  0
    9.4456   -4.4737    4.0044 C   0  0  0  0  0  0  0  0  0  0  0  0
    8.0584   -4.0155    4.4298 C   0  0  1  0  0  0  0  0  0  0  0  0
    7.9232   -3.9135    5.9549 C   0  0  0  0  0  0  0  0  0  0  0  0
    8.8640   -3.7067    6.7215 O   0  0  0  0  0  0  0  0  0  0  0  0
    6.6206   -3.9931    6.3912 N   0  0  0  0  0  0  0  0  0  0  0  0
    6.2503   -3.9184    7.7887 C   0  0  3  0  0  0  0  0  0  0  0  0
    6.4980   -5.1407    8.6586 C   0  0  0  0  0  0  0  0  0  0  0  0
    5.0885   -4.7783    8.2912 C   0  0  2  0  0  0  0  0  0  0  0  0
    4.3472   -5.6613    7.3784 C   0  0  0  0  0  0  0  0  0  0  0  0
    3.4864   -5.2817    6.4236 C   0  0  0  0  0  0  0  0  0  0  0  0
    6.4195   -2.5615    8.4380 C   0  0  0  0  0  0  0  0  0  0  0  0
    5.4768   -1.9059    8.8499 O   0  0  0  0  0  0  0  0  0  0  0  0
    7.7085   -2.1508    8.5189 O   0  0  0  0  0  0  0  0  0  0  0  0
   11.2600   -3.4694    2.8527 O   0  0  0  0  0  0  0  0  0  0  0  0
   12.2843   -2.5797    2.6697 C   0  0  0  0  0  0  0  0  0  0  0  0
   12.4141   -1.3647    3.3323 C   0  0  0  0  0  0  0  0  0  0  0  0
   13.4993   -0.5700    3.0128 C   0  0  0  0  0  0  0  0  0  0  0  0
   14.4255   -0.8889    2.0857 N   0  0  0  0  0  0  0  0  0  0  0  0
   14.3048   -2.0680    1.4506 C   0  0  0  0  0  0  0  0  0  0  0  0
   15.2472   -2.4145    0.4913 C   0  0  0  0  0  0  0  0  0  0  0  0
   15.2022   -3.6403   -0.1790 C   0  0  0  0  0  0  0  0  0  0  0  0
   14.1901   -4.5452    0.1047 C   0  0  0  0  0  0  0  0  0  0  0  0
   13.2162   -4.2089    1.0397 C   0  0  0  0  0  0  0  0  0  0  0  0
   13.2565   -2.9683    1.7200 C   0  0  0  0  0  0  0  0  0  0  0  0
    1.8850   -2.8799   -1.4268 H   0  0  0  0  0  0  0  0  0  0  0  0
    2.4710   -3.5839    0.0944 H   0  0  0  0  0  0  0  0  0  0  0  0
    3.5997   -2.8040   -1.0052 H   0  0  0  0  0  0  0  0  0  0  0  0
    1.7960   -0.1580   -1.5800 H   0  0  0  0  0  0  0  0  0  0  0  0
    3.5409   -0.2669   -1.3056 H   0  0  0  0  0  0  0  0  0  0  0  0
    2.5605    0.7247   -0.2320 H   0  0  0  0  0  0  0  0  0  0  0  0
    0.1779   -1.4368   -0.1873 H   0  0  0  0  0  0  0  0  0  0  0  0
    0.7048   -0.4521    1.1960 H   0  0  0  0  0  0  0  0  0  0  0  0
    0.7001   -2.2026    1.3272 H   0  0  0  0  0  0  0  0  0  0  0  0
    4.3224   -0.9937    3.1866 H   0  0  0  0  0  0  0  0  0  0  0  0
    7.0106   -0.9767    1.8859 H   0  0  0  0  0  0  0  0  0  0  0  0
    7.8744    0.3184    3.8341 H   0  0  0  0  0  0  0  0  0  0  0  0
    6.2190   -0.2483    5.5723 H   0  0  0  0  0  0  0  0  0  0  0  0
    4.9596    0.6302    4.6985 H   0  0  0  0  0  0  0  0  0  0  0  0
    7.5097    1.8102    5.8940 H   0  0  0  0  0  0  0  0  0  0  0  0
    5.8655    2.0301    6.4978 H   0  0  0  0  0  0  0  0  0  0  0  0
    6.6447    4.0006    5.1814 H   0  0  0  0  0  0  0  0  0  0  0  0
    5.2251    3.2527    4.4652 H   0  0  0  0  0  0  0  0  0  0  0  0
    8.1226    2.9024    3.5546 H   0  0  0  0  0  0  0  0  0  0  0  0
    6.8473    3.7692    2.7006 H   0  0  0  0  0  0  0  0  0  0  0  0
    7.2317    1.5048    1.7456 H   0  0  0  0  0  0  0  0  0  0  0  0
    5.5884    1.7167    2.3493 H   0  0  0  0  0  0  0  0  0  0  0  0
    9.3087   -1.2125    3.3395 H   0  0  0  0  0  0  0  0  0  0  0  0
    9.0204   -2.4228    2.0668 H   0  0  0  0  0  0  0  0  0  0  0  0
   10.5806   -2.7917    4.7187 H   0  0  0  0  0  0  0  0  0  0  0  0
    9.9505   -5.1161    4.7363 H   0  0  0  0  0  0  0  0  0  0  0  0
    9.3770   -5.0511    3.0711 H   0  0  0  0  0  0  0  0  0  0  0  0
    7.2998   -4.7186    4.0625 H   0  0  0  0  0  0  0  0  0  0  0  0
    5.8857   -3.8341    5.6945 H   0  0  0  0  0  0  0  0  0  0  0  0
    6.8086   -4.9848    9.6877 H   0  0  0  0  0  0  0  0  0  0  0  0
    6.9508   -6.0112    8.1986 H   0  0  0  0  0  0  0  0  0  0  0  0
    4.4762   -4.3742    9.0929 H   0  0  0  0  0  0  0  0  0  0  0  0
    4.4971   -6.7296    7.5225 H   0  0  0  0  0  0  0  0  0  0  0  0
    3.2749   -4.2346    6.2249 H   0  0  0  0  0  0  0  0  0  0  0  0
    2.9703   -6.0241    5.8207 H   0  0  0  0  0  0  0  0  0  0  0  0
    8.3151   -2.7945    8.0789 H   0  0  0  0  0  0  0  0  0  0  0  0
   11.7218   -1.0173    4.0877 H   0  0  0  0  0  0  0  0  0  0  0  0
   13.6585    0.3861    3.5062 H   0  0  0  0  0  0  0  0  0  0  0  0
   16.0422   -1.7098    0.2624 H   0  0  0  0  0  0  0  0  0  0  0  0
   15.9604   -3.8796   -0.9185 H   0  0  0  0  0  0  0  0  0  0  0  0
   14.1573   -5.5077   -0.3975 H   0  0  0  0  0  0  0  0  0  0  0  0
   12.4232   -4.9253    1.2463 H   0  0  0  0  0  0  0  0  0  0  0  0
  1  2  1  0  0  0  0
  1 45  1  0  0  0  0
  1 46  1  0  0  0  0
  1 47  1  0  0  0  0
  2  3  1  0  0  0  0
  2  4  1  0  0  0  0
  2  5  1  0  0  0  0
  3 48  1  0  0  0  0
  3 49  1  0  0  0  0
  3 50  1  0  0  0  0
  4 51  1  0  0  0  0
  4 52  1  0  0  0  0
  4 53  1  0  0  0  0
  5  6  1  0  0  0  0
  6  7  2  0  0  0  0
  6  8  1  0  0  0  0
  8  9  1  0  0  0  0
  8 54  1  0  0  0  0
  9 10  1  0  0  0  0
  9 16  1  0  0  0  0
  9 55  1  6  0  0  0
 10 11  1  0  0  0  0
 10 15  1  0  0  0  0
 10 56  1  0  0  0  0
 11 12  1  0  0  0  0
 11 57  1  0  0  0  0
 11 58  1  0  0  0  0
 12 13  1  0  0  0  0
 12 59  1  0  0  0  0
 12 60  1  0  0  0  0
 13 14  1  0  0  0  0
 13 61  1  0  0  0  0
 13 62  1  0  0  0  0
 14 15  1  0  0  0  0
 14 63  1  0  0  0  0
 14 64  1  0  0  0  0
 15 65  1  0  0  0  0
 15 66  1  0  0  0  0
 16 17  2  0  0  0  0
 16 18  1  0  0  0  0
 18 19  1  0  0  0  0
 18 22  1  0  0  0  0
 19 20  1  0  0  0  0
 19 67  1  0  0  0  0
 19 68  1  0  0  0  0
 20 21  1  0  0  0  0
 20 34  1  0  0  0  0
 20 69  1  1  0  0  0
 21 22  1  0  0  0  0
 21 70  1  0  0  0  0
 21 71  1  0  0  0  0
 22 23  1  0  0  0  0
 22 72  1  6  0  0  0
 23 24  2  0  0  0  0
 23 25  1  0  0  0  0
 25 26  1  0  0  0  0
 25 73  1  0  0  0  0
 26 27  1  0  0  0  0
 26 28  1  0  0  0  0
 26 31  1  0  0  0  0
 27 28  1  0  0  0  0
 27 74  1  0  0  0  0
 27 75  1  0  0  0  0
 28 29  1  0  0  0  0
 28 76  1  1  0  0  0
 29 30  2  0  0  0  0
 29 77  1  0  0  0  0
 30 78  1  0  0  0  0
 30 79  1  0  0  0  0
 31 32  2  0  0  0  0
 31 33  1  0  0  0  0
 33 80  1  0  0  0  0
 34 35  1  0  0  0  0
 35 36  2  0  0  0  0
 35 44  1  0  0  0  0
 36 37  1  0  0  0  0
 36 81  1  0  0  0  0
 37 38  2  0  0  0  0
 37 82  1  0  0  0  0
 38 39  1  0  0  0  0
 39 40  2  0  0  0  0
 39 44  1  0  0  0  0
 40 41  1  0  0  0  0
 40 83  1  0  0  0  0
 41 42  2  0  0  0  0
 41 84  1  0  0  0  0
 42 43  1  0  0  0  0
 42 85  1  0  0  0  0
 43 44  2  0  0  0  0
 43 86  1  0  0  0  0
M  END
