
 OpenBabel10072619563D

 34 35  0  0  0  0  0  0  0  0999 V2000
   -4.6042   -3.7579    4.4069 C   0  0  0  0  0  0  0  0  0  0  0  0
   -4.3611   -3.1885    3.1539 C   0  0  0  0  0  0  0  0  0  0  0  0
   -3.0935   -3.2978    2.5640 C   0  0  0  0  0  0  0  0  0  0  0  0
   -2.0702   -3.9795    3.2300 C   0  0  0  0  0  0  0  0  0  0  0  0
   -2.3209   -4.5486    4.4857 C   0  0  0  0  0  0  0  0  0  0  0  0
   -3.5835   -4.4381    5.0779 C   0  0  0  0  0  0  0  0  0  0  0  0
   -3.8301   -5.0323    6.3597 C   0  0  0  0  0  0  0  0  0  0  0  0
   -4.0282   -5.5171    7.3950 N   0  0  0  0  0  0  0  0  0  0  0  0
   -0.4937   -4.2313    2.5705 Cl  0  0  0  0  0  0  0  0  0  0  0  0
   -2.8213   -2.5300    0.9850 S   0  0  0  0  0  0  0  0  0  0  0  0
   -4.0775   -1.9495    0.5560 O   0  0  0  0  0  0  0  0  0  0  0  0
   -1.6289   -1.7202    1.0968 O   0  0  0  0  0  0  0  0  0  0  0  0
   -2.4626   -3.8352   -0.0318 N   0  0  0  0  0  0  0  0  0  0  0  0
   -3.4415   -4.8483   -0.2194 C   0  0  0  0  0  0  0  0  0  0  0  0
   -4.5459   -4.6043   -1.0357 C   0  0  0  0  0  0  0  0  0  0  0  0
   -5.5273   -5.5896   -1.2220 C   0  0  0  0  0  0  0  0  0  0  0  0
   -5.4098   -6.8031   -0.5224 C   0  0  0  0  0  0  0  0  0  0  0  0
   -4.3175   -7.0457    0.3261 C   0  0  0  0  0  0  0  0  0  0  0  0
   -3.3215   -6.0645    0.4512 C   0  0  0  0  0  0  0  0  0  0  0  0
   -4.2128   -8.3242    1.1233 C   0  0  0  0  0  0  0  0  0  0  0  0
   -5.2303   -9.1951    0.8884 F   0  0  0  0  0  0  0  0  0  0  0  0
   -3.0625   -9.0040    0.8707 F   0  0  0  0  0  0  0  0  0  0  0  0
   -4.2227   -8.0849    2.4641 F   0  0  0  0  0  0  0  0  0  0  0  0
   -6.6967   -5.3635   -2.1529 C   0  0  0  0  0  0  0  0  0  0  0  0
   -6.6126   -4.2090   -2.8667 F   0  0  0  0  0  0  0  0  0  0  0  0
   -6.8231   -6.3623   -3.0707 F   0  0  0  0  0  0  0  0  0  0  0  0
   -7.8836   -5.3151   -1.4890 F   0  0  0  0  0  0  0  0  0  0  0  0
   -5.5942   -3.6625    4.8530 H   0  0  0  0  0  0  0  0  0  0  0  0
   -5.1671   -2.6579    2.6478 H   0  0  0  0  0  0  0  0  0  0  0  0
   -1.5269   -5.0858    5.0055 H   0  0  0  0  0  0  0  0  0  0  0  0
   -1.4844   -4.1183    0.0497 H   0  0  0  0  0  0  0  0  0  0  0  0
   -4.6328   -3.6462   -1.5489 H   0  0  0  0  0  0  0  0  0  0  0  0
   -6.1802   -7.5679   -0.6422 H   0  0  0  0  0  0  0  0  0  0  0  0
   -2.4607   -6.2618    1.0866 H   0  0  0  0  0  0  0  0  0  0  0  0
  1  2  2  0  0  0  0
  1  6  1  0  0  0  0
  1 28  1  0  0  0  0
  2  3  1  0  0  0  0
  2 29  1  0  0  0  0
  3  4  2  0  0  0  0
  3 10  1  0  0  0  0
  4  5  1  0  0  0  0
  4  9  1  0  0  0  0
  5  6  2  0  0  0  0
  5 30  1  0  0  0  0
  6  7  1  0  0  0  0
  7  8  3  0  0  0  0
 10 11  2  0  0  0  0
 10 12  2  0  0  0  0
 10 13  1  0  0  0  0
 13 14  1  0  0  0  0
 13 31  1  0  0  0  0
 14 15  2  0  0  0  0
 14 19  1  0  0  0  0
 15 16  1  0  0  0  0
 15 32  1  0  0  0  0
 16 17  2  0  0  0  0
 16 24  1  0  0  0  0
 17 18  1  0  0  0  0
 17 33  1  0  0  0  0
 18 19  2  0  0  0  0
 18 20  1  0  0  0  0
 19 34  1  0  0  0  0
 20 21  1  0  0  0  0
 20 22  1  0  0  0  0
 20 23  1  0  0  0  0
 24 25  1  0  0  0  0
 24 26  1  0  0  0  0
 24 27  1  0  0  0  0
M  END
