
 OpenBabel10072619443D

 37 39  0  0  0  0  0  0  0  0999 V2000
    1.4392   -1.3697   -0.2774 C   0  0  0  0  0  0  0  0  0  0  0  0
    0.7673   -0.7366   -1.3219 C   0  0  0  0  0  0  0  0  0  0  0  0
   -0.4986   -0.1873   -1.1074 C   0  0  0  0  0  0  0  0  0  0  0  0
   -1.1015   -0.2767    0.1510 C   0  0  0  0  0  0  0  0  0  0  0  0
   -0.4171   -0.9020    1.1970 C   0  0  0  0  0  0  0  0  0  0  0  0
    0.8483   -1.4516    0.9824 C   0  0  0  0  0  0  0  0  0  0  0  0
   -2.7084    0.4253    0.4619 S   0  0  0  0  0  0  0  0  0  0  0  0
   -3.7014   -0.5622   -0.7118 C   0  0  0  0  0  0  0  0  0  0  0  0
   -5.1536   -0.2497   -0.5737 C   0  0  0  0  0  0  0  0  0  0  0  0
   -6.0282   -0.9813    0.0880 N   0  0  0  0  0  0  0  0  0  0  0  0
   -7.2967   -0.4365    0.0419 N   0  0  0  0  0  0  0  0  0  0  0  0
   -7.3361    0.6756   -0.6587 C   0  0  0  0  0  0  0  0  0  0  0  0
   -5.8398    1.1343   -1.3271 S   0  0  0  0  0  0  0  0  0  0  0  0
   -8.4913    1.4052   -0.8031 N   0  0  0  0  0  0  0  0  0  0  0  0
   -8.6587    2.5489   -1.5578 C   0  0  0  0  0  0  0  0  0  0  0  0
   -7.8075    3.0461   -2.2816 O   0  0  0  0  0  0  0  0  0  0  0  0
   -9.9359    3.0656   -1.3840 N   0  0  0  0  0  0  0  0  0  0  0  0
  -10.4746    4.2468   -1.9367 C   0  0  0  0  0  0  0  0  0  0  0  0
   -9.7696    5.1244   -2.7645 C   0  0  0  0  0  0  0  0  0  0  0  0
  -10.3740    6.2951   -3.2383 C   0  0  0  0  0  0  0  0  0  0  0  0
  -11.6890    6.5880   -2.8924 C   0  0  0  0  0  0  0  0  0  0  0  0
  -12.4078    5.7184   -2.0787 C   0  0  0  0  0  0  0  0  0  0  0  0
  -11.8013    4.5522   -1.6033 C   0  0  0  0  0  0  0  0  0  0  0  0
  -12.4266    8.0319   -3.4639 Cl  0  0  0  0  0  0  0  0  0  0  0  0
    2.4279   -1.7907   -0.4420 H   0  0  0  0  0  0  0  0  0  0  0  0
    1.2330   -0.6628   -2.3014 H   0  0  0  0  0  0  0  0  0  0  0  0
   -0.9969    0.3227   -1.9278 H   0  0  0  0  0  0  0  0  0  0  0  0
   -0.8644   -0.9680    2.1862 H   0  0  0  0  0  0  0  0  0  0  0  0
    1.3726   -1.9390    1.8004 H   0  0  0  0  0  0  0  0  0  0  0  0
   -3.5370   -1.6256   -0.5048 H   0  0  0  0  0  0  0  0  0  0  0  0
   -3.3683   -0.3673   -1.7368 H   0  0  0  0  0  0  0  0  0  0  0  0
   -9.2735    1.0051   -0.3126 H   0  0  0  0  0  0  0  0  0  0  0  0
  -10.5540    2.5465   -0.7800 H   0  0  0  0  0  0  0  0  0  0  0  0
   -8.7406    4.9396   -3.0557 H   0  0  0  0  0  0  0  0  0  0  0  0
   -9.8046    6.9695   -3.8725 H   0  0  0  0  0  0  0  0  0  0  0  0
  -13.4350    5.9422   -1.8051 H   0  0  0  0  0  0  0  0  0  0  0  0
  -12.3826    3.8912   -0.9658 H   0  0  0  0  0  0  0  0  0  0  0  0
  1  2  2  0  0  0  0
  1  6  1  0  0  0  0
  1 25  1  0  0  0  0
  2  3  1  0  0  0  0
  2 26  1  0  0  0  0
  3  4  2  0  0  0  0
  3 27  1  0  0  0  0
  4  5  1  0  0  0  0
  4  7  1  0  0  0  0
  5  6  2  0  0  0  0
  5 28  1  0  0  0  0
  6 29  1  0  0  0  0
  7  8  1  0  0  0  0
  8  9  1  0  0  0  0
  8 30  1  0  0  0  0
  8 31  1  0  0  0  0
  9 10  2  0  0  0  0
  9 13  1  0  0  0  0
 10 11  1  0  0  0  0
 11 12  2  0  0  0  0
 12 13  1  0  0  0  0
 12 14  1  0  0  0  0
 14 15  1  0  0  0  0
 14 32  1  0  0  0  0
 15 16  2  0  0  0  0
 15 17  1  0  0  0  0
 17 18  1  0  0  0  0
 17 33  1  0  0  0  0
 18 19  2  0  0  0  0
 18 23  1  0  0  0  0
 19 20  1  0  0  0  0
 19 34  1  0  0  0  0
 20 21  2  0  0  0  0
 20 35  1  0  0  0  0
 21 22  1  0  0  0  0
 21 24  1  0  0  0  0
 22 23  2  0  0  0  0
 22 36  1  0  0  0  0
 23 37  1  0  0  0  0
M  END
