
 OpenBabel10072619563D

 58 61  0  0  1  0  0  0  0  0999 V2000
    6.6599   -0.5584    2.1010 C   0  0  0  0  0  0  0  0  0  0  0  0
    5.9402   -0.7842    0.7865 C   0  0  0  0  0  0  0  0  0  0  0  0
    6.3773    0.4538   -0.4257 S   0  0  0  0  0  0  0  0  0  0  0  0
    5.8675    1.7306    0.0286 O   0  0  0  0  0  0  0  0  0  0  0  0
    7.7617    0.2842   -0.8052 O   0  0  0  0  0  0  0  0  0  0  0  0
    5.3548    0.0035   -1.7069 N   0  0  0  0  0  0  0  0  0  0  0  0
    5.9813   -0.5147   -2.8786 C   0  0  0  0  0  0  0  0  0  0  0  0
    6.2587   -1.8762   -2.9787 C   0  0  0  0  0  0  0  0  0  0  0  0
    6.9095   -2.3708   -4.1144 C   0  0  0  0  0  0  0  0  0  0  0  0
    7.3065   -1.5012   -5.1396 C   0  0  0  0  0  0  0  0  0  0  0  0
    7.0446   -0.1318   -5.0185 C   0  0  0  0  0  0  0  0  0  0  0  0
    6.3817    0.3590   -3.8891 C   0  0  0  0  0  0  0  0  0  0  0  0
    8.0192   -2.0531   -6.3177 C   0  0  0  0  0  0  0  0  0  0  0  0
    8.0994   -3.3235   -6.5648 N   0  0  0  0  0  0  0  0  0  0  0  0
    8.9285   -3.4584   -7.7408 N   0  0  0  0  0  0  0  0  0  0  0  0
    9.2435   -2.1580   -8.3521 C   0  0  3  0  0  0  0  0  0  0  0  0
    8.7348   -1.1586   -7.2993 C   0  0  0  0  0  0  0  0  0  0  0  0
    8.6761   -1.8568   -9.7226 C   0  0  0  0  0  0  0  0  0  0  0  0
    7.3011   -1.9360   -9.9910 C   0  0  0  0  0  0  0  0  0  0  0  0
    6.8153   -1.6055  -11.2529 C   0  0  0  0  0  0  0  0  0  0  0  0
    7.6713   -1.1924  -12.2665 C   0  0  0  0  0  0  0  0  0  0  0  0
    9.0398   -1.1189  -12.0212 C   0  0  0  0  0  0  0  0  0  0  0  0
    9.5381   -1.4465  -10.7571 C   0  0  0  0  0  0  0  0  0  0  0  0
    5.4985   -1.6699  -11.4906 F   0  0  0  0  0  0  0  0  0  0  0  0
    9.0155   -4.9375   -8.5674 S   0  0  0  0  0  0  0  0  0  0  0  0
    9.0507   -6.0221   -7.6054 O   0  0  0  0  0  0  0  0  0  0  0  0
    8.0527   -4.9430   -9.6505 O   0  0  0  0  0  0  0  0  0  0  0  0
   10.6418   -4.8587   -9.2869 C   0  0  0  0  0  0  0  0  0  0  0  0
   11.7569   -4.8511   -8.4446 C   0  0  0  0  0  0  0  0  0  0  0  0
   13.0354   -4.7983   -9.0009 C   0  0  0  0  0  0  0  0  0  0  0  0
   13.2036   -4.7508  -10.3926 C   0  0  0  0  0  0  0  0  0  0  0  0
   12.0748   -4.7784  -11.2239 C   0  0  0  0  0  0  0  0  0  0  0  0
   10.7930   -4.8288  -10.6746 C   0  0  0  0  0  0  0  0  0  0  0  0
   14.5827   -4.7569  -10.9859 C   0  0  0  0  0  0  0  0  0  0  0  0
    6.3870   -1.3362    2.8205 H   0  0  0  0  0  0  0  0  0  0  0  0
    6.4005    0.4129    2.5340 H   0  0  0  0  0  0  0  0  0  0  0  0
    7.7454   -0.5840    1.9654 H   0  0  0  0  0  0  0  0  0  0  0  0
    4.8578   -0.7328    0.9350 H   0  0  0  0  0  0  0  0  0  0  0  0
    6.2063   -1.7599    0.3717 H   0  0  0  0  0  0  0  0  0  0  0  0
    4.7122    0.7806   -1.8796 H   0  0  0  0  0  0  0  0  0  0  0  0
    5.9667   -2.5609   -2.1876 H   0  0  0  0  0  0  0  0  0  0  0  0
    7.1198   -3.4370   -4.1840 H   0  0  0  0  0  0  0  0  0  0  0  0
    7.3481    0.5777   -5.7817 H   0  0  0  0  0  0  0  0  0  0  0  0
    6.1977    1.4264   -3.8005 H   0  0  0  0  0  0  0  0  0  0  0  0
   10.3368   -2.0702   -8.3910 H   0  0  0  0  0  0  0  0  0  0  0  0
    8.0641   -0.3972   -7.7081 H   0  0  0  0  0  0  0  0  0  0  0  0
    9.5702   -0.6697   -6.7870 H   0  0  0  0  0  0  0  0  0  0  0  0
    6.5970   -2.2676   -9.2323 H   0  0  0  0  0  0  0  0  0  0  0  0
    7.2643   -0.9351  -13.2391 H   0  0  0  0  0  0  0  0  0  0  0  0
    9.7190   -0.8023  -12.8094 H   0  0  0  0  0  0  0  0  0  0  0  0
   10.6122   -1.3796  -10.5886 H   0  0  0  0  0  0  0  0  0  0  0  0
   11.6333   -4.9022   -7.3646 H   0  0  0  0  0  0  0  0  0  0  0  0
   13.9024   -4.8108   -8.3429 H   0  0  0  0  0  0  0  0  0  0  0  0
   12.1884   -4.7741  -12.3064 H   0  0  0  0  0  0  0  0  0  0  0  0
    9.9257   -4.8567  -11.3311 H   0  0  0  0  0  0  0  0  0  0  0  0
   15.2833   -4.2094  -10.3467 H   0  0  0  0  0  0  0  0  0  0  0  0
   14.5906   -4.2718  -11.9677 H   0  0  0  0  0  0  0  0  0  0  0  0
   14.9352   -5.7869  -11.0989 H   0  0  0  0  0  0  0  0  0  0  0  0
  1  2  1  0  0  0  0
  1 35  1  0  0  0  0
  1 36  1  0  0  0  0
  1 37  1  0  0  0  0
  2  3  1  0  0  0  0
  2 38  1  0  0  0  0
  2 39  1  0  0  0  0
  3  4  2  0  0  0  0
  3  5  2  0  0  0  0
  3  6  1  0  0  0  0
  6  7  1  0  0  0  0
  6 40  1  0  0  0  0
  7  8  2  0  0  0  0
  7 12  1  0  0  0  0
  8  9  1  0  0  0  0
  8 41  1  0  0  0  0
  9 10  2  0  0  0  0
  9 42  1  0  0  0  0
 10 11  1  0  0  0  0
 10 13  1  0  0  0  0
 11 12  2  0  0  0  0
 11 43  1  0  0  0  0
 12 44  1  0  0  0  0
 13 14  2  0  0  0  0
 13 17  1  0  0  0  0
 14 15  1  0  0  0  0
 15 16  1  0  0  0  0
 15 25  1  0  0  0  0
 16 17  1  0  0  0  0
 16 18  1  0  0  0  0
 16 45  1  0  0  0  0
 17 46  1  0  0  0  0
 17 47  1  0  0  0  0
 18 19  2  0  0  0  0
 18 23  1  0  0  0  0
 19 20  1  0  0  0  0
 19 48  1  0  0  0  0
 20 21  2  0  0  0  0
 20 24  1  0  0  0  0
 21 22  1  0  0  0  0
 21 49  1  0  0  0  0
 22 23  2  0  0  0  0
 22 50  1  0  0  0  0
 23 51  1  0  0  0  0
 25 26  2  0  0  0  0
 25 27  2  0  0  0  0
 25 28  1  0  0  0  0
 28 29  2  0  0  0  0
 28 33  1  0  0  0  0
 29 30  1  0  0  0  0
 29 52  1  0  0  0  0
 30 31  2  0  0  0  0
 30 53  1  0  0  0  0
 31 32  1  0  0  0  0
 31 34  1  0  0  0  0
 32 33  2  0  0  0  0
 32 54  1  0  0  0  0
 33 55  1  0  0  0  0
 34 56  1  0  0  0  0
 34 57  1  0  0  0  0
 34 58  1  0  0  0  0
M  END
