
 OpenBabel10072619583D

 39 41  0  0  0  0  0  0  0  0999 V2000
    1.1300   -0.5015    0.0212 C   0  0  0  0  0  0  0  0  0  0  0  0
    2.6288   -0.3898   -0.0557 C   0  0  0  0  0  0  0  0  0  0  0  0
    3.3883   -1.5554   -0.2246 C   0  0  0  0  0  0  0  0  0  0  0  0
    4.7831   -1.4844   -0.2469 C   0  0  0  0  0  0  0  0  0  0  0  0
    5.4426   -0.2549   -0.1606 C   0  0  0  0  0  0  0  0  0  0  0  0
    4.7086    0.9288   -0.0198 C   0  0  0  0  0  0  0  0  0  0  0  0
    3.2988    0.8475    0.0413 C   0  0  0  0  0  0  0  0  0  0  0  0
    2.5628    2.0314    0.2080 N   0  0  0  0  0  0  0  0  0  0  0  0
    3.1216    3.2712    0.3148 C   0  0  0  0  0  0  0  0  0  0  0  0
    2.4462    4.2841    0.4625 O   0  0  0  0  0  0  0  0  0  0  0  0
    4.5958    3.3463    0.2382 C   0  0  0  0  0  0  0  0  0  0  0  0
    5.3624    2.2557    0.0746 C   0  0  0  0  0  0  0  0  0  0  0  0
    6.8565    2.3728   -0.0235 C   0  0  0  0  0  0  0  0  0  0  0  0
    5.7401   -2.9749   -0.4111 S   0  0  0  0  0  0  0  0  0  0  0  0
    4.8938   -3.9859   -1.0026 O   0  0  0  0  0  0  0  0  0  0  0  0
    7.0171   -2.6138   -0.9845 O   0  0  0  0  0  0  0  0  0  0  0  0
    6.0297   -3.3983    1.1816 N   0  0  0  0  0  0  0  0  0  0  0  0
    4.8836   -3.7642    2.0077 C   0  0  0  0  0  0  0  0  0  0  0  0
    5.3888   -4.1809    3.3382 C   0  0  0  0  0  0  0  0  0  0  0  0
    6.0540   -5.2986    3.7968 C   0  0  0  0  0  0  0  0  0  0  0  0
    6.2461   -5.1036    5.1857 C   0  0  0  0  0  0  0  0  0  0  0  0
    5.7031   -3.8757    5.4811 C   0  0  0  0  0  0  0  0  0  0  0  0
    5.1860   -3.3042    4.3640 O   0  0  0  0  0  0  0  0  0  0  0  0
    0.8031   -1.5467   -0.0155 H   0  0  0  0  0  0  0  0  0  0  0  0
    0.6654    0.0237   -0.8189 H   0  0  0  0  0  0  0  0  0  0  0  0
    0.7607   -0.0818    0.9633 H   0  0  0  0  0  0  0  0  0  0  0  0
    2.8927   -2.5206   -0.3197 H   0  0  0  0  0  0  0  0  0  0  0  0
    6.5286   -0.2371   -0.2023 H   0  0  0  0  0  0  0  0  0  0  0  0
    1.5538    2.0144    0.2515 H   0  0  0  0  0  0  0  0  0  0  0  0
    5.0095    4.3455    0.3148 H   0  0  0  0  0  0  0  0  0  0  0  0
    7.1940    3.4113    0.0690 H   0  0  0  0  0  0  0  0  0  0  0  0
    7.2107    2.0040   -0.9920 H   0  0  0  0  0  0  0  0  0  0  0  0
    7.3481    1.8060    0.7738 H   0  0  0  0  0  0  0  0  0  0  0  0
    6.7611   -2.8494    1.6308 H   0  0  0  0  0  0  0  0  0  0  0  0
    4.3216   -4.5851    1.5527 H   0  0  0  0  0  0  0  0  0  0  0  0
    4.2154   -2.9084    2.1337 H   0  0  0  0  0  0  0  0  0  0  0  0
    6.3575   -6.1474    3.1985 H   0  0  0  0  0  0  0  0  0  0  0  0
    6.7232   -5.7743    5.8864 H   0  0  0  0  0  0  0  0  0  0  0  0
    5.6094   -3.2950    6.3888 H   0  0  0  0  0  0  0  0  0  0  0  0
  1  2  1  0  0  0  0
  1 24  1  0  0  0  0
  1 25  1  0  0  0  0
  1 26  1  0  0  0  0
  2  3  2  0  0  0  0
  2  7  1  0  0  0  0
  3  4  1  0  0  0  0
  3 27  1  0  0  0  0
  4  5  2  0  0  0  0
  4 14  1  0  0  0  0
  5  6  1  0  0  0  0
  5 28  1  0  0  0  0
  6  7  2  0  0  0  0
  6 12  1  0  0  0  0
  7  8  1  0  0  0  0
  8  9  1  0  0  0  0
  8 29  1  0  0  0  0
  9 10  2  0  0  0  0
  9 11  1  0  0  0  0
 11 12  2  0  0  0  0
 11 30  1  0  0  0  0
 12 13  1  0  0  0  0
 13 31  1  0  0  0  0
 13 32  1  0  0  0  0
 13 33  1  0  0  0  0
 14 15  2  0  0  0  0
 14 16  2  0  0  0  0
 14 17  1  0  0  0  0
 17 18  1  0  0  0  0
 17 34  1  0  0  0  0
 18 19  1  0  0  0  0
 18 35  1  0  0  0  0
 18 36  1  0  0  0  0
 19 20  2  0  0  0  0
 19 23  1  0  0  0  0
 20 21  1  0  0  0  0
 20 37  1  0  0  0  0
 21 22  2  0  0  0  0
 21 38  1  0  0  0  0
 22 23  1  0  0  0  0
 22 39  1  0  0  0  0
M  END
