
 OpenBabel10072619423D

 36 37  0  0  0  0  0  0  0  0999 V2000
    1.7883    0.7262    0.4921 C   0  0  0  0  0  0  0  0  0  0  0  0
    2.5133   -0.4605    0.1960 O   0  0  0  0  0  0  0  0  0  0  0  0
    3.0131   -0.5836   -1.0706 C   0  0  0  0  0  0  0  0  0  0  0  0
    3.0435    0.4123   -2.0468 C   0  0  0  0  0  0  0  0  0  0  0  0
    3.5595    0.1326   -3.3228 C   0  0  0  0  0  0  0  0  0  0  0  0
    4.0735   -1.1411   -3.6192 C   0  0  0  0  0  0  0  0  0  0  0  0
    4.1072   -2.1079   -2.6113 C   0  0  0  0  0  0  0  0  0  0  0  0
    3.5613   -1.8353   -1.3558 C   0  0  0  0  0  0  0  0  0  0  0  0
    4.5998   -1.5098   -4.8795 N   0  0  0  0  0  0  0  0  0  0  0  0
    4.0492   -1.1206   -6.0946 C   0  0  0  0  0  0  0  0  0  0  0  0
    2.9407   -0.6231   -6.2311 O   0  0  0  0  0  0  0  0  0  0  0  0
    4.9116   -1.4541   -7.1271 N   0  0  0  0  0  0  0  0  0  0  0  0
    4.7093   -1.2837   -8.5113 C   0  0  0  0  0  0  0  0  0  0  0  0
    3.5395   -0.7714   -9.0771 C   0  0  0  0  0  0  0  0  0  0  0  0
    3.4455   -0.6067  -10.4611 C   0  0  0  0  0  0  0  0  0  0  0  0
    4.5020   -0.9650  -11.2948 C   0  0  0  0  0  0  0  0  0  0  0  0
    5.6632   -1.4964  -10.7412 C   0  0  0  0  0  0  0  0  0  0  0  0
    5.7661   -1.6524   -9.3568 C   0  0  0  0  0  0  0  0  0  0  0  0
    2.0103    0.0515  -11.1496 Cl  0  0  0  0  0  0  0  0  0  0  0  0
    3.7194    1.1477   -4.2350 O   0  0  0  0  0  0  0  0  0  0  0  0
    2.4878    1.7968   -4.5513 C   0  0  0  0  0  0  0  0  0  0  0  0
    1.3188    0.5970    1.4719 H   0  0  0  0  0  0  0  0  0  0  0  0
    0.9855    0.9062   -0.2299 H   0  0  0  0  0  0  0  0  0  0  0  0
    2.4607    1.5866    0.5556 H   0  0  0  0  0  0  0  0  0  0  0  0
    2.7064    1.4190   -1.8295 H   0  0  0  0  0  0  0  0  0  0  0  0
    4.5249   -3.0931   -2.7955 H   0  0  0  0  0  0  0  0  0  0  0  0
    3.5618   -2.6076   -0.5904 H   0  0  0  0  0  0  0  0  0  0  0  0
    5.0649   -2.4037   -4.9195 H   0  0  0  0  0  0  0  0  0  0  0  0
    5.8332   -1.7394   -6.8345 H   0  0  0  0  0  0  0  0  0  0  0  0
    2.6918   -0.4846   -8.4639 H   0  0  0  0  0  0  0  0  0  0  0  0
    4.4276   -0.8272  -12.3702 H   0  0  0  0  0  0  0  0  0  0  0  0
    6.4907   -1.7819  -11.3859 H   0  0  0  0  0  0  0  0  0  0  0  0
    6.6831   -2.0694   -8.9487 H   0  0  0  0  0  0  0  0  0  0  0  0
    2.6050    2.2882   -5.5220 H   0  0  0  0  0  0  0  0  0  0  0  0
    2.2645    2.5689   -3.8093 H   0  0  0  0  0  0  0  0  0  0  0  0
    1.6518    1.0929   -4.6305 H   0  0  0  0  0  0  0  0  0  0  0  0
  1  2  1  0  0  0  0
  1 22  1  0  0  0  0
  1 23  1  0  0  0  0
  1 24  1  0  0  0  0
  2  3  1  0  0  0  0
  3  4  2  0  0  0  0
  3  8  1  0  0  0  0
  4  5  1  0  0  0  0
  4 25  1  0  0  0  0
  5  6  2  0  0  0  0
  5 20  1  0  0  0  0
  6  7  1  0  0  0  0
  6  9  1  0  0  0  0
  7  8  2  0  0  0  0
  7 26  1  0  0  0  0
  8 27  1  0  0  0  0
  9 10  1  0  0  0  0
  9 28  1  0  0  0  0
 10 11  2  0  0  0  0
 10 12  1  0  0  0  0
 12 13  1  0  0  0  0
 12 29  1  0  0  0  0
 13 14  2  0  0  0  0
 13 18  1  0  0  0  0
 14 15  1  0  0  0  0
 14 30  1  0  0  0  0
 15 16  2  0  0  0  0
 15 19  1  0  0  0  0
 16 17  1  0  0  0  0
 16 31  1  0  0  0  0
 17 18  2  0  0  0  0
 17 32  1  0  0  0  0
 18 33  1  0  0  0  0
 20 21  1  0  0  0  0
 21 34  1  0  0  0  0
 21 35  1  0  0  0  0
 21 36  1  0  0  0  0
M  END
