
 OpenBabel10072620003D

 59 63  0  0  0  0  0  0  0  0999 V2000
    2.4595   -0.6378   -0.2746 C   0  0  0  0  0  0  0  0  0  0  0  0
    1.0281   -0.2212   -0.0798 C   0  0  0  0  0  0  0  0  0  0  0  0
    0.5804    1.1021    0.0353 C   0  0  0  0  0  0  0  0  0  0  0  0
   -0.8075    1.3458    0.0667 C   0  0  0  0  0  0  0  0  0  0  0  0
   -1.7510    0.3143    0.0418 C   0  0  0  0  0  0  0  0  0  0  0  0
   -1.2935   -0.9976    0.0086 C   0  0  0  0  0  0  0  0  0  0  0  0
    0.0772   -1.2607   -0.0489 C   0  0  0  0  0  0  0  0  0  0  0  0
   -3.1491    0.5333    0.0543 N   0  0  0  0  0  0  0  0  0  0  0  0
   -3.7898    1.7586   -0.0911 C   0  0  0  0  0  0  0  0  0  0  0  0
   -3.2115    2.8238   -0.2849 O   0  0  0  0  0  0  0  0  0  0  0  0
   -5.1597    1.6205    0.0210 N   0  0  0  0  0  0  0  0  0  0  0  0
   -5.9888    2.6876   -0.2070 C   0  0  0  0  0  0  0  0  0  0  0  0
   -5.6990    3.8490   -0.7300 N   0  0  0  0  0  0  0  0  0  0  0  0
   -6.8220    4.6470   -0.7425 C   0  0  0  0  0  0  0  0  0  0  0  0
   -7.9828    4.0517   -0.2426 C   0  0  0  0  0  0  0  0  0  0  0  0
   -7.6157    2.4349    0.2361 S   0  0  0  0  0  0  0  0  0  0  0  0
   -9.1963    4.7519   -0.1767 C   0  0  0  0  0  0  0  0  0  0  0  0
   -9.2325    6.0832   -0.6140 C   0  0  0  0  0  0  0  0  0  0  0  0
   -8.0828    6.6894   -1.1176 C   0  0  0  0  0  0  0  0  0  0  0  0
   -6.8802    5.9783   -1.1927 C   0  0  0  0  0  0  0  0  0  0  0  0
  -10.4578    6.6825   -0.4911 O   0  0  0  0  0  0  0  0  0  0  0  0
  -10.5589    8.0313   -0.9337 C   0  0  0  0  0  0  0  0  0  0  0  0
    1.3791    2.2726    0.0794 N   0  0  0  0  0  0  0  0  0  0  0  0
    2.6840    2.4102    0.5187 C   0  0  0  0  0  0  0  0  0  0  0  0
    3.3480    1.5236    1.0436 O   0  0  0  0  0  0  0  0  0  0  0  0
    3.1245    3.7069    0.3519 N   0  0  0  0  0  0  0  0  0  0  0  0
    4.4574    4.0012    0.4726 C   0  0  0  0  0  0  0  0  0  0  0  0
    5.4753    3.1973    0.3624 N   0  0  0  0  0  0  0  0  0  0  0  0
    6.6428    3.9132    0.5284 C   0  0  0  0  0  0  0  0  0  0  0  0
    6.4752    5.2799    0.7697 C   0  0  0  0  0  0  0  0  0  0  0  0
    4.7912    5.6511    0.7366 S   0  0  0  0  0  0  0  0  0  0  0  0
    7.5713    6.1283    0.9909 C   0  0  0  0  0  0  0  0  0  0  0  0
    8.8621    5.5843    0.9608 C   0  0  0  0  0  0  0  0  0  0  0  0
    9.0484    4.2281    0.6943 C   0  0  0  0  0  0  0  0  0  0  0  0
    7.9471    3.3888    0.4799 C   0  0  0  0  0  0  0  0  0  0  0  0
    9.8555    6.4935    1.2088 O   0  0  0  0  0  0  0  0  0  0  0  0
   11.1884    6.0016    1.2052 C   0  0  0  0  0  0  0  0  0  0  0  0
    3.0007    0.0778   -0.9033 H   0  0  0  0  0  0  0  0  0  0  0  0
    2.5137   -1.5994   -0.7988 H   0  0  0  0  0  0  0  0  0  0  0  0
    2.9520   -0.7719    0.6933 H   0  0  0  0  0  0  0  0  0  0  0  0
   -1.1358    2.3755    0.1435 H   0  0  0  0  0  0  0  0  0  0  0  0
   -1.9813   -1.8376    0.0054 H   0  0  0  0  0  0  0  0  0  0  0  0
    0.4108   -2.2954   -0.1016 H   0  0  0  0  0  0  0  0  0  0  0  0
   -3.7286   -0.2924    0.0105 H   0  0  0  0  0  0  0  0  0  0  0  0
   -5.5619    0.8088    0.4588 H   0  0  0  0  0  0  0  0  0  0  0  0
  -10.0901    4.2826    0.2235 H   0  0  0  0  0  0  0  0  0  0  0  0
   -8.0760    7.7205   -1.4558 H   0  0  0  0  0  0  0  0  0  0  0  0
   -5.9799    6.4499   -1.5776 H   0  0  0  0  0  0  0  0  0  0  0  0
  -11.5899    8.3617   -0.7751 H   0  0  0  0  0  0  0  0  0  0  0  0
  -10.3417    8.1108   -2.0042 H   0  0  0  0  0  0  0  0  0  0  0  0
   -9.9052    8.6867   -0.3486 H   0  0  0  0  0  0  0  0  0  0  0  0
    0.8762    3.1373   -0.0569 H   0  0  0  0  0  0  0  0  0  0  0  0
    2.4746    4.4707    0.4006 H   0  0  0  0  0  0  0  0  0  0  0  0
    7.4206    7.1845    1.1963 H   0  0  0  0  0  0  0  0  0  0  0  0
   10.0371    3.7814    0.6554 H   0  0  0  0  0  0  0  0  0  0  0  0
    8.0901    2.3279    0.2890 H   0  0  0  0  0  0  0  0  0  0  0  0
   11.8551    6.8347    1.4424 H   0  0  0  0  0  0  0  0  0  0  0  0
   11.4622    5.6231    0.2162 H   0  0  0  0  0  0  0  0  0  0  0  0
   11.3295    5.2355    1.9729 H   0  0  0  0  0  0  0  0  0  0  0  0
  1  2  1  0  0  0  0
  1 38  1  0  0  0  0
  1 39  1  0  0  0  0
  1 40  1  0  0  0  0
  2  3  2  0  0  0  0
  2  7  1  0  0  0  0
  3  4  1  0  0  0  0
  3 23  1  0  0  0  0
  4  5  2  0  0  0  0
  4 41  1  0  0  0  0
  5  6  1  0  0  0  0
  5  8  1  0  0  0  0
  6  7  2  0  0  0  0
  6 42  1  0  0  0  0
  7 43  1  0  0  0  0
  8  9  1  0  0  0  0
  8 44  1  0  0  0  0
  9 10  2  0  0  0  0
  9 11  1  0  0  0  0
 11 12  1  0  0  0  0
 11 45  1  0  0  0  0
 12 13  2  0  0  0  0
 12 16  1  0  0  0  0
 13 14  1  0  0  0  0
 14 15  2  0  0  0  0
 14 20  1  0  0  0  0
 15 16  1  0  0  0  0
 15 17  1  0  0  0  0
 17 18  2  0  0  0  0
 17 46  1  0  0  0  0
 18 19  1  0  0  0  0
 18 21  1  0  0  0  0
 19 20  2  0  0  0  0
 19 47  1  0  0  0  0
 20 48  1  0  0  0  0
 21 22  1  0  0  0  0
 22 49  1  0  0  0  0
 22 50  1  0  0  0  0
 22 51  1  0  0  0  0
 23 24  1  0  0  0  0
 23 52  1  0  0  0  0
 24 25  2  0  0  0  0
 24 26  1  0  0  0  0
 26 27  1  0  0  0  0
 26 53  1  0  0  0  0
 27 28  2  0  0  0  0
 27 31  1  0  0  0  0
 28 29  1  0  0  0  0
 29 30  2  0  0  0  0
 29 35  1  0  0  0  0
 30 31  1  0  0  0  0
 30 32  1  0  0  0  0
 32 33  2  0  0  0  0
 32 54  1  0  0  0  0
 33 34  1  0  0  0  0
 33 36  1  0  0  0  0
 34 35  2  0  0  0  0
 34 55  1  0  0  0  0
 35 56  1  0  0  0  0
 36 37  1  0  0  0  0
 37 57  1  0  0  0  0
 37 58  1  0  0  0  0
 37 59  1  0  0  0  0
M  END
