
 OpenBabel10072619563D

 72 75  0  0  0  0  0  0  0  0999 V2000
    1.0696   -0.3315   -0.7888 C   0  0  0  0  0  0  0  0  0  0  0  0
    2.5647   -0.1083   -0.9334 C   0  0  0  0  0  0  0  0  0  0  0  0
    3.0581    0.4052    0.3037 O   0  0  0  0  0  0  0  0  0  0  0  0
    4.4072    0.6067    0.3984 C   0  0  0  0  0  0  0  0  0  0  0  0
    5.3389    0.4091   -0.6189 C   0  0  0  0  0  0  0  0  0  0  0  0
    6.7024    0.6288   -0.3771 C   0  0  0  0  0  0  0  0  0  0  0  0
    7.1608    1.0654    0.8760 C   0  0  0  0  0  0  0  0  0  0  0  0
    6.2131    1.2665    1.8844 C   0  0  0  0  0  0  0  0  0  0  0  0
    4.8511    1.0418    1.6486 C   0  0  0  0  0  0  0  0  0  0  0  0
    8.5260    1.2506    1.1937 N   0  0  0  0  0  0  0  0  0  0  0  0
    9.2081    1.5703    0.1980 N   0  0  0  0  0  0  0  0  0  0  0  0
   10.5853    1.6830    0.4820 C   0  0  0  0  0  0  0  0  0  0  0  0
   11.2577    0.8858    1.4195 C   0  0  0  0  0  0  0  0  0  0  0  0
   12.6492    0.9947    1.5845 C   0  0  0  0  0  0  0  0  0  0  0  0
   13.3956    1.8921    0.8090 C   0  0  0  0  0  0  0  0  0  0  0  0
   12.7197    2.6941   -0.1192 C   0  0  0  0  0  0  0  0  0  0  0  0
   11.3347    2.5854   -0.2802 C   0  0  0  0  0  0  0  0  0  0  0  0
   14.8512    2.0383    0.8732 C   0  0  0  0  0  0  0  0  0  0  0  0
   15.4491    2.8757    1.7321 C   0  0  0  0  0  0  0  0  0  0  0  0
   16.9019    3.0633    1.6986 C   0  0  0  0  0  0  0  0  0  0  0  0
   17.5349    4.0476    0.9258 C   0  0  0  0  0  0  0  0  0  0  0  0
   18.9334    4.1592    0.9082 C   0  0  0  0  0  0  0  0  0  0  0  0
   19.7303    3.2923    1.6687 C   0  0  0  0  0  0  0  0  0  0  0  0
   19.0950    2.3016    2.4253 C   0  0  0  0  0  0  0  0  0  0  0  0
   17.6993    2.1861    2.4437 C   0  0  0  0  0  0  0  0  0  0  0  0
   21.1420    3.3347    1.6744 N   0  0  0  0  0  0  0  0  0  0  0  0
   21.5795    4.4925    1.5076 N   0  0  0  0  0  0  0  0  0  0  0  0
   22.9883    4.5569    1.5017 C   0  0  0  0  0  0  0  0  0  0  0  0
   23.8194    3.5356    1.0177 C   0  0  0  0  0  0  0  0  0  0  0  0
   25.2150    3.6811    1.0010 C   0  0  0  0  0  0  0  0  0  0  0  0
   25.7994    4.8621    1.4556 C   0  0  0  0  0  0  0  0  0  0  0  0
   24.9793    5.8874    1.9295 C   0  0  0  0  0  0  0  0  0  0  0  0
   23.5893    5.7372    1.9486 C   0  0  0  0  0  0  0  0  0  0  0  0
   27.1353    5.1453    1.4877 O   0  0  0  0  0  0  0  0  0  0  0  0
   28.0330    4.1437    1.0143 C   0  0  0  0  0  0  0  0  0  0  0  0
   29.4437    4.6913    1.1441 C   0  0  0  0  0  0  0  0  0  0  0  0
   16.5772    5.1716   -0.0509 S   0  0  0  0  0  0  0  0  0  0  0  0
   16.0663    4.4506   -1.1974 O   0  0  0  0  0  0  0  0  0  0  0  0
   15.7132    5.9224    0.8324 O   0  0  0  0  0  0  0  0  0  0  0  0
   17.6326    6.2263   -0.6676 O   0  0  0  0  0  0  0  0  0  0  0  0
   13.4620   -0.0569    2.7523 S   0  0  0  0  0  0  0  0  0  0  0  0
   14.4165   -0.8788    2.0375 O   0  0  0  0  0  0  0  0  0  0  0  0
   13.8397    0.7425    3.8951 O   0  0  0  0  0  0  0  0  0  0  0  0
   12.3399   -1.1010    3.2588 O   0  0  0  0  0  0  0  0  0  0  0  0
    0.6373   -0.6975   -1.7246 H   0  0  0  0  0  0  0  0  0  0  0  0
    0.5647    0.5976   -0.5044 H   0  0  0  0  0  0  0  0  0  0  0  0
    0.8651   -1.0608    0.0021 H   0  0  0  0  0  0  0  0  0  0  0  0
    2.7434    0.6131   -1.7392 H   0  0  0  0  0  0  0  0  0  0  0  0
    3.0442   -1.0654   -1.1709 H   0  0  0  0  0  0  0  0  0  0  0  0
    5.0464    0.0789   -1.6101 H   0  0  0  0  0  0  0  0  0  0  0  0
    7.4106    0.4465   -1.1816 H   0  0  0  0  0  0  0  0  0  0  0  0
    6.5370    1.5970    2.8681 H   0  0  0  0  0  0  0  0  0  0  0  0
    4.1333    1.2005    2.4503 H   0  0  0  0  0  0  0  0  0  0  0  0
   10.6904    0.1671    2.0062 H   0  0  0  0  0  0  0  0  0  0  0  0
   13.2689    3.4020   -0.7401 H   0  0  0  0  0  0  0  0  0  0  0  0
   10.8344    3.2043   -1.0223 H   0  0  0  0  0  0  0  0  0  0  0  0
   15.4187    1.4634    0.1436 H   0  0  0  0  0  0  0  0  0  0  0  0
   14.8940    3.4707    2.4545 H   0  0  0  0  0  0  0  0  0  0  0  0
   19.4161    4.9186    0.2984 H   0  0  0  0  0  0  0  0  0  0  0  0
   19.6942    1.6072    3.0108 H   0  0  0  0  0  0  0  0  0  0  0  0
   17.2393    1.4003    3.0423 H   0  0  0  0  0  0  0  0  0  0  0  0
   23.3816    2.6141    0.6419 H   0  0  0  0  0  0  0  0  0  0  0  0
   25.8093    2.8565    0.6218 H   0  0  0  0  0  0  0  0  0  0  0  0
   25.4248    6.8144    2.2832 H   0  0  0  0  0  0  0  0  0  0  0  0
   22.9692    6.5512    2.3160 H   0  0  0  0  0  0  0  0  0  0  0  0
   27.8318    3.9165   -0.0389 H   0  0  0  0  0  0  0  0  0  0  0  0
   27.9428    3.2348    1.6199 H   0  0  0  0  0  0  0  0  0  0  0  0
   29.5609    5.5986    0.5419 H   0  0  0  0  0  0  0  0  0  0  0  0
   30.1824    3.9538    0.8186 H   0  0  0  0  0  0  0  0  0  0  0  0
   29.6558    4.9703    2.1816 H   0  0  0  0  0  0  0  0  0  0  0  0
   17.4028    6.3540   -1.6121 H   0  0  0  0  0  0  0  0  0  0  0  0
   12.7492   -1.9922    3.2527 H   0  0  0  0  0  0  0  0  0  0  0  0
  1  2  1  0  0  0  0
  1 45  1  0  0  0  0
  1 46  1  0  0  0  0
  1 47  1  0  0  0  0
  2  3  1  0  0  0  0
  2 48  1  0  0  0  0
  2 49  1  0  0  0  0
  3  4  1  0  0  0  0
  4  5  2  0  0  0  0
  4  9  1  0  0  0  0
  5  6  1  0  0  0  0
  5 50  1  0  0  0  0
  6  7  2  0  0  0  0
  6 51  1  0  0  0  0
  7  8  1  0  0  0  0
  7 10  1  0  0  0  0
  8  9  2  0  0  0  0
  8 52  1  0  0  0  0
  9 53  1  0  0  0  0
 10 11  2  3  0  0  0
 11 12  1  0  0  0  0
 12 13  2  0  0  0  0
 12 17  1  0  0  0  0
 13 14  1  0  0  0  0
 13 54  1  0  0  0  0
 14 15  2  0  0  0  0
 14 41  1  0  0  0  0
 15 16  1  0  0  0  0
 15 18  1  0  0  0  0
 16 17  2  0  0  0  0
 16 55  1  0  0  0  0
 17 56  1  0  0  0  0
 18 19  2  0  0  0  0
 18 57  1  0  0  0  0
 19 20  1  0  0  0  0
 19 58  1  0  0  0  0
 20 21  2  0  0  0  0
 20 25  1  0  0  0  0
 21 22  1  0  0  0  0
 21 37  1  0  0  0  0
 22 23  2  0  0  0  0
 22 59  1  0  0  0  0
 23 24  1  0  0  0  0
 23 26  1  0  0  0  0
 24 25  2  0  0  0  0
 24 60  1  0  0  0  0
 25 61  1  0  0  0  0
 26 27  2  3  0  0  0
 27 28  1  0  0  0  0
 28 29  2  0  0  0  0
 28 33  1  0  0  0  0
 29 30  1  0  0  0  0
 29 62  1  0  0  0  0
 30 31  2  0  0  0  0
 30 63  1  0  0  0  0
 31 32  1  0  0  0  0
 31 34  1  0  0  0  0
 32 33  2  0  0  0  0
 32 64  1  0  0  0  0
 33 65  1  0  0  0  0
 34 35  1  0  0  0  0
 35 36  1  0  0  0  0
 35 66  1  0  0  0  0
 35 67  1  0  0  0  0
 36 68  1  0  0  0  0
 36 69  1  0  0  0  0
 36 70  1  0  0  0  0
 37 38  2  0  0  0  0
 37 39  2  0  0  0  0
 37 40  1  0  0  0  0
 40 71  1  0  0  0  0
 41 42  2  0  0  0  0
 41 43  2  0  0  0  0
 41 44  1  0  0  0  0
 44 72  1  0  0  0  0
M  END
