
 OpenBabel10072620013D

 49 51  0  0  0  0  0  0  0  0999 V2000
   -0.3595   -2.6632   -3.7980 C   0  0  0  0  0  0  0  0  0  0  0  0
   -1.0704   -1.7544   -2.8414 C   0  0  0  0  0  0  0  0  0  0  0  0
   -0.3700   -1.0713   -1.8413 C   0  0  0  0  0  0  0  0  0  0  0  0
   -1.0542   -0.2837   -0.9147 C   0  0  0  0  0  0  0  0  0  0  0  0
   -2.4507   -0.1740   -0.9700 C   0  0  0  0  0  0  0  0  0  0  0  0
   -3.1460   -0.8374   -1.9893 C   0  0  0  0  0  0  0  0  0  0  0  0
   -2.4616   -1.6218   -2.9160 C   0  0  0  0  0  0  0  0  0  0  0  0
   -3.1996    0.6116    0.0775 C   0  0  0  0  0  0  0  0  0  0  0  0
   -3.8886    1.8054   -0.4479 N   0  0  0  0  0  0  0  0  0  0  0  0
   -3.0185    2.8046   -1.1152 C   0  0  0  0  0  0  0  0  0  0  0  0
   -2.1889    3.6465   -0.1781 C   0  0  0  0  0  0  0  0  0  0  0  0
   -1.0699    4.3145   -0.6689 C   0  0  0  0  0  0  0  0  0  0  0  0
   -0.2989    5.1529    0.0613 N   0  0  0  0  0  0  0  0  0  0  0  0
   -0.6607    5.3516    1.3450 C   0  0  0  0  0  0  0  0  0  0  0  0
   -1.7532    4.7440    1.9339 C   0  0  0  0  0  0  0  0  0  0  0  0
   -2.5296    3.8894    1.1557 C   0  0  0  0  0  0  0  0  0  0  0  0
   -5.2951    1.9393   -0.3976 C   0  0  0  0  0  0  0  0  0  0  0  0
   -6.1680    3.0865   -1.2688 S   0  0  0  0  0  0  0  0  0  0  0  0
   -5.8872    1.0848    0.5254 N   0  0  0  0  0  0  0  0  0  0  0  0
   -7.1957    0.5477    0.5442 C   0  0  0  0  0  0  0  0  0  0  0  0
   -7.9333    0.2894   -0.6115 C   0  0  0  0  0  0  0  0  0  0  0  0
   -9.2147   -0.2707   -0.5281 C   0  0  0  0  0  0  0  0  0  0  0  0
   -9.7720   -0.5970    0.7126 C   0  0  0  0  0  0  0  0  0  0  0  0
   -9.0205   -0.3597    1.8666 C   0  0  0  0  0  0  0  0  0  0  0  0
   -7.7372    0.1890    1.7815 C   0  0  0  0  0  0  0  0  0  0  0  0
  -11.1700   -1.1331    0.8131 C   0  0  0  0  0  0  0  0  0  0  0  0
    0.7274   -2.5653   -3.7116 H   0  0  0  0  0  0  0  0  0  0  0  0
   -0.6420   -2.4182   -4.8266 H   0  0  0  0  0  0  0  0  0  0  0  0
   -0.6279   -3.7042   -3.5874 H   0  0  0  0  0  0  0  0  0  0  0  0
    0.7121   -1.1588   -1.7656 H   0  0  0  0  0  0  0  0  0  0  0  0
   -0.4897    0.2321   -0.1414 H   0  0  0  0  0  0  0  0  0  0  0  0
   -4.2295   -0.7552   -2.0537 H   0  0  0  0  0  0  0  0  0  0  0  0
   -3.0217   -2.1455   -3.6895 H   0  0  0  0  0  0  0  0  0  0  0  0
   -2.5249    0.9393    0.8751 H   0  0  0  0  0  0  0  0  0  0  0  0
   -3.8963   -0.0967    0.5383 H   0  0  0  0  0  0  0  0  0  0  0  0
   -3.5976    3.4984   -1.7278 H   0  0  0  0  0  0  0  0  0  0  0  0
   -2.3638    2.2784   -1.8175 H   0  0  0  0  0  0  0  0  0  0  0  0
   -0.7474    4.2044   -1.7015 H   0  0  0  0  0  0  0  0  0  0  0  0
   -0.0335    6.0417    1.9011 H   0  0  0  0  0  0  0  0  0  0  0  0
   -2.0046    4.9410    2.9699 H   0  0  0  0  0  0  0  0  0  0  0  0
   -3.4063    3.4273    1.5959 H   0  0  0  0  0  0  0  0  0  0  0  0
   -5.4062    1.0574    1.4142 H   0  0  0  0  0  0  0  0  0  0  0  0
   -7.5250    0.4923   -1.5967 H   0  0  0  0  0  0  0  0  0  0  0  0
   -9.7696   -0.4520   -1.4453 H   0  0  0  0  0  0  0  0  0  0  0  0
   -9.4319   -0.5992    2.8450 H   0  0  0  0  0  0  0  0  0  0  0  0
   -7.1851    0.3571    2.7024 H   0  0  0  0  0  0  0  0  0  0  0  0
  -11.4474   -1.6902   -0.0877 H   0  0  0  0  0  0  0  0  0  0  0  0
  -11.8800   -0.3110    0.9504 H   0  0  0  0  0  0  0  0  0  0  0  0
  -11.2615   -1.8205    1.6611 H   0  0  0  0  0  0  0  0  0  0  0  0
  1  2  1  0  0  0  0
  1 27  1  0  0  0  0
  1 28  1  0  0  0  0
  1 29  1  0  0  0  0
  2  3  2  0  0  0  0
  2  7  1  0  0  0  0
  3  4  1  0  0  0  0
  3 30  1  0  0  0  0
  4  5  2  0  0  0  0
  4 31  1  0  0  0  0
  5  6  1  0  0  0  0
  5  8  1  0  0  0  0
  6  7  2  0  0  0  0
  6 32  1  0  0  0  0
  7 33  1  0  0  0  0
  8  9  1  0  0  0  0
  8 34  1  0  0  0  0
  8 35  1  0  0  0  0
  9 10  1  0  0  0  0
  9 17  1  0  0  0  0
 10 11  1  0  0  0  0
 10 36  1  0  0  0  0
 10 37  1  0  0  0  0
 11 12  2  0  0  0  0
 11 16  1  0  0  0  0
 12 13  1  0  0  0  0
 12 38  1  0  0  0  0
 13 14  2  0  0  0  0
 14 15  1  0  0  0  0
 14 39  1  0  0  0  0
 15 16  2  0  0  0  0
 15 40  1  0  0  0  0
 16 41  1  0  0  0  0
 17 18  2  0  0  0  0
 17 19  1  0  0  0  0
 19 20  1  0  0  0  0
 19 42  1  0  0  0  0
 20 21  2  0  0  0  0
 20 25  1  0  0  0  0
 21 22  1  0  0  0  0
 21 43  1  0  0  0  0
 22 23  2  0  0  0  0
 22 44  1  0  0  0  0
 23 24  1  0  0  0  0
 23 26  1  0  0  0  0
 24 25  2  0  0  0  0
 24 45  1  0  0  0  0
 25 46  1  0  0  0  0
 26 47  1  0  0  0  0
 26 48  1  0  0  0  0
 26 49  1  0  0  0  0
M  END
