
 OpenBabel10072619543D

 40 42  0  0  0  0  0  0  0  0999 V2000
   -0.7585    1.4265   -4.5492 C   0  0  0  0  0  0  0  0  0  0  0  0
   -1.1010    2.3768   -3.5914 C   0  0  0  0  0  0  0  0  0  0  0  0
   -1.8330    1.9994   -2.4613 C   0  0  0  0  0  0  0  0  0  0  0  0
   -2.2224    0.6669   -2.2651 C   0  0  0  0  0  0  0  0  0  0  0  0
   -1.8884   -0.2698   -3.2505 C   0  0  0  0  0  0  0  0  0  0  0  0
   -1.1557    0.1031   -4.3812 C   0  0  0  0  0  0  0  0  0  0  0  0
   -2.9760    0.3450   -1.1182 N   0  0  0  0  0  0  0  0  0  0  0  0
   -3.7350   -0.8005   -0.8310 C   0  0  0  0  0  0  0  0  0  0  0  0
   -3.6169   -1.4212    0.4158 C   0  0  0  0  0  0  0  0  0  0  0  0
   -4.3147   -2.6019    0.7062 C   0  0  0  0  0  0  0  0  0  0  0  0
   -5.1627   -3.1771   -0.2386 C   0  0  0  0  0  0  0  0  0  0  0  0
   -5.2704   -2.5667   -1.4938 C   0  0  0  0  0  0  0  0  0  0  0  0
   -4.5668   -1.3928   -1.7837 C   0  0  0  0  0  0  0  0  0  0  0  0
   -5.8685   -4.3856   -0.0517 N   0  0  0  0  0  0  0  0  0  0  0  0
   -6.2400   -5.0856    1.1023 C   0  0  0  0  0  0  0  0  0  0  0  0
   -6.3092   -4.4660    2.6537 S   0  0  0  0  0  0  0  0  0  0  0  0
   -6.5333   -6.4012    0.7226 N   0  0  0  0  0  0  0  0  0  0  0  0
   -7.2193   -7.4413    1.3898 C   0  0  0  0  0  0  0  0  0  0  0  0
   -8.1605   -7.2450    2.4004 C   0  0  0  0  0  0  0  0  0  0  0  0
   -8.8181   -8.3334    2.9830 C   0  0  0  0  0  0  0  0  0  0  0  0
   -8.5510   -9.6295    2.5502 C   0  0  0  0  0  0  0  0  0  0  0  0
   -7.6328   -9.8381    1.5249 C   0  0  0  0  0  0  0  0  0  0  0  0
   -6.9788   -8.7488    0.9432 C   0  0  0  0  0  0  0  0  0  0  0  0
   -0.1824    1.7152   -5.4242 H   0  0  0  0  0  0  0  0  0  0  0  0
   -0.8025    3.4131   -3.7227 H   0  0  0  0  0  0  0  0  0  0  0  0
   -2.1088    2.7589   -1.7348 H   0  0  0  0  0  0  0  0  0  0  0  0
   -2.1611   -1.3153   -3.1346 H   0  0  0  0  0  0  0  0  0  0  0  0
   -0.8909   -0.6435   -5.1252 H   0  0  0  0  0  0  0  0  0  0  0  0
   -2.6841    0.8650   -0.2973 H   0  0  0  0  0  0  0  0  0  0  0  0
   -2.9556   -1.0085    1.1739 H   0  0  0  0  0  0  0  0  0  0  0  0
   -4.1330   -3.0643    1.6693 H   0  0  0  0  0  0  0  0  0  0  0  0
   -5.9112   -2.9832   -2.2669 H   0  0  0  0  0  0  0  0  0  0  0  0
   -4.6853   -0.9286   -2.7601 H   0  0  0  0  0  0  0  0  0  0  0  0
   -6.3296   -4.7334   -0.8836 H   0  0  0  0  0  0  0  0  0  0  0  0
   -6.0006   -6.7018   -0.0833 H   0  0  0  0  0  0  0  0  0  0  0  0
   -8.4367   -6.2529    2.7395 H   0  0  0  0  0  0  0  0  0  0  0  0
   -9.5476   -8.1616    3.7712 H   0  0  0  0  0  0  0  0  0  0  0  0
   -9.0611  -10.4724    3.0072 H   0  0  0  0  0  0  0  0  0  0  0  0
   -7.4255  -10.8471    1.1783 H   0  0  0  0  0  0  0  0  0  0  0  0
   -6.2652   -8.9426    0.1464 H   0  0  0  0  0  0  0  0  0  0  0  0
  1  2  2  0  0  0  0
  1  6  1  0  0  0  0
  1 24  1  0  0  0  0
  2  3  1  0  0  0  0
  2 25  1  0  0  0  0
  3  4  2  0  0  0  0
  3 26  1  0  0  0  0
  4  5  1  0  0  0  0
  4  7  1  0  0  0  0
  5  6  2  0  0  0  0
  5 27  1  0  0  0  0
  6 28  1  0  0  0  0
  7  8  1  0  0  0  0
  7 29  1  0  0  0  0
  8  9  2  0  0  0  0
  8 13  1  0  0  0  0
  9 10  1  0  0  0  0
  9 30  1  0  0  0  0
 10 11  2  0  0  0  0
 10 31  1  0  0  0  0
 11 12  1  0  0  0  0
 11 14  1  0  0  0  0
 12 13  2  0  0  0  0
 12 32  1  0  0  0  0
 13 33  1  0  0  0  0
 14 15  1  0  0  0  0
 14 34  1  0  0  0  0
 15 16  2  0  0  0  0
 15 17  1  0  0  0  0
 17 18  1  0  0  0  0
 17 35  1  0  0  0  0
 18 19  2  0  0  0  0
 18 23  1  0  0  0  0
 19 20  1  0  0  0  0
 19 36  1  0  0  0  0
 20 21  2  0  0  0  0
 20 37  1  0  0  0  0
 21 22  1  0  0  0  0
 21 38  1  0  0  0  0
 22 23  2  0  0  0  0
 22 39  1  0  0  0  0
 23 40  1  0  0  0  0
M  END
