
 OpenBabel10072620213D

 34 35  0  0  0  0  0  0  0  0999 V2000
    0.2139   -1.3684   -0.7091 C   0  0  0  0  0  0  0  0  0  0  0  0
   -0.7152   -0.9325    0.2340 C   0  0  0  0  0  0  0  0  0  0  0  0
   -0.6487    0.3703    0.7352 C   0  0  0  0  0  0  0  0  0  0  0  0
    0.3384    1.2594    0.3049 C   0  0  0  0  0  0  0  0  0  0  0  0
    1.2540    0.8078   -0.6504 C   0  0  0  0  0  0  0  0  0  0  0  0
    1.1996   -0.4921   -1.1556 C   0  0  0  0  0  0  0  0  0  0  0  0
    2.2161    1.6207   -1.1162 F   0  0  0  0  0  0  0  0  0  0  0  0
    0.4167    2.6298    0.8813 C   0  0  0  0  0  0  0  0  0  0  0  0
   -0.0564    2.8431    1.9889 O   0  0  0  0  0  0  0  0  0  0  0  0
    1.0642    3.5724    0.0999 N   0  0  0  0  0  0  0  0  0  0  0  0
    1.2573    4.9036    0.4079 C   0  0  0  0  0  0  0  0  0  0  0  0
    0.7996    5.5208    1.3630 O   0  0  0  0  0  0  0  0  0  0  0  0
    2.0354    5.5265   -0.5673 N   0  0  0  0  0  0  0  0  0  0  0  0
    2.4072    6.8712   -0.2829 N   0  0  0  0  0  0  0  0  0  0  0  0
    3.8181    7.0211   -0.2434 C   0  0  0  0  0  0  0  0  0  0  0  0
    4.3874    8.2253    0.1892 C   0  0  0  0  0  0  0  0  0  0  0  0
    5.7720    8.3789    0.1357 C   0  0  0  0  0  0  0  0  0  0  0  0
    6.5676    7.3321   -0.3399 C   0  0  0  0  0  0  0  0  0  0  0  0
    5.9268    6.1721   -0.7494 C   0  0  0  0  0  0  0  0  0  0  0  0
    4.5846    5.9958   -0.7180 N   0  0  0  0  0  0  0  0  0  0  0  0
    8.0544    7.4513   -0.4698 C   0  0  0  0  0  0  0  0  0  0  0  0
    8.5813    8.4617    0.2737 F   0  0  0  0  0  0  0  0  0  0  0  0
    8.7106    6.3224   -0.0872 F   0  0  0  0  0  0  0  0  0  0  0  0
    8.4369    7.6898   -1.7529 F   0  0  0  0  0  0  0  0  0  0  0  0
    3.4289    9.5265    0.7907 Cl  0  0  0  0  0  0  0  0  0  0  0  0
   -1.5861    0.7400    1.6187 F   0  0  0  0  0  0  0  0  0  0  0  0
    0.1668   -2.3846   -1.0943 H   0  0  0  0  0  0  0  0  0  0  0  0
   -1.4979   -1.5988    0.5876 H   0  0  0  0  0  0  0  0  0  0  0  0
    1.9307   -0.8135   -1.8926 H   0  0  0  0  0  0  0  0  0  0  0  0
    1.4402    3.2875   -0.7909 H   0  0  0  0  0  0  0  0  0  0  0  0
    2.8257    4.9959   -0.9373 H   0  0  0  0  0  0  0  0  0  0  0  0
    1.9920    7.1845    0.6054 H   0  0  0  0  0  0  0  0  0  0  0  0
    6.2289    9.3141    0.4547 H   0  0  0  0  0  0  0  0  0  0  0  0
    6.4874    5.3234   -1.1388 H   0  0  0  0  0  0  0  0  0  0  0  0
  1  2  2  0  0  0  0
  1  6  1  0  0  0  0
  1 27  1  0  0  0  0
  2  3  1  0  0  0  0
  2 28  1  0  0  0  0
  3  4  2  0  0  0  0
  3 26  1  0  0  0  0
  4  5  1  0  0  0  0
  4  8  1  0  0  0  0
  5  6  2  0  0  0  0
  5  7  1  0  0  0  0
  6 29  1  0  0  0  0
  8  9  2  0  0  0  0
  8 10  1  0  0  0  0
 10 11  1  0  0  0  0
 10 30  1  0  0  0  0
 11 12  2  0  0  0  0
 11 13  1  0  0  0  0
 13 14  1  0  0  0  0
 13 31  1  0  0  0  0
 14 15  1  0  0  0  0
 14 32  1  0  0  0  0
 15 16  2  0  0  0  0
 15 20  1  0  0  0  0
 16 17  1  0  0  0  0
 16 25  1  0  0  0  0
 17 18  2  0  0  0  0
 17 33  1  0  0  0  0
 18 19  1  0  0  0  0
 18 21  1  0  0  0  0
 19 20  2  0  0  0  0
 19 34  1  0  0  0  0
 21 22  1  0  0  0  0
 21 23  1  0  0  0  0
 21 24  1  0  0  0  0
M  END
