
 OpenBabel10072616433D

 79 82  0  0  0  0  0  0  0  0999 V2000
    1.4813   -0.8211   -2.0040 C   0  0  0  0  0  0  0  0  0  0  0  0
    0.4966   -0.2894   -1.0187 C   0  0  0  0  0  0  0  0  0  0  0  0
    0.6371   -0.2718    0.3592 C   0  0  0  0  0  0  0  0  0  0  0  0
   -0.5187    0.2319    0.8957 N   0  0  0  0  0  0  0  0  0  0  0  0
   -1.3630    0.6429   -0.1098 C   0  0  0  0  0  0  0  0  0  0  0  0
   -0.7647    0.3238   -1.3213 C   0  0  0  0  0  0  0  0  0  0  0  0
   -1.3154    0.6014   -2.6917 C   0  0  0  0  0  0  0  0  0  0  0  0
   -0.9091    1.9934   -3.1699 C   0  0  0  0  0  0  0  0  0  0  0  0
   -1.4965    2.3148   -4.5189 C   0  0  0  0  0  0  0  0  0  0  0  0
   -2.0946    1.5288   -5.2356 O   0  0  0  0  0  0  0  0  0  0  0  0
   -1.2918    3.6071   -4.8700 O   0  0  0  0  0  0  0  0  0  0  0  0
   -2.6621    1.3239    0.1989 C   0  0  0  0  0  0  0  0  0  0  0  0
   -3.8637    0.4232    0.1866 C   0  0  0  0  0  0  0  0  0  0  0  0
   -5.1377    0.6385    0.6997 C   0  0  0  0  0  0  0  0  0  0  0  0
   -5.9256   -0.5176    0.3884 C   0  0  0  0  0  0  0  0  0  0  0  0
   -5.1245   -1.3608   -0.3609 C   0  0  0  0  0  0  0  0  0  0  0  0
   -3.8673   -0.8183   -0.4120 N   0  0  0  0  0  0  0  0  0  0  0  0
   -5.3636   -2.5919   -1.0145 C   0  0  0  0  0  0  0  0  0  0  0  0
   -6.0907   -2.6994   -2.1356 C   0  0  0  0  0  0  0  0  0  0  0  0
   -6.7080   -1.6986   -3.0077 C   0  0  0  0  0  0  0  0  0  0  0  0
   -7.4730   -2.3253   -3.9299 C   0  0  0  0  0  0  0  0  0  0  0  0
   -7.3415   -3.7801   -3.6809 C   0  0  0  0  0  0  0  0  0  0  0  0
   -7.8973   -4.6717   -4.2940 O   0  0  0  0  0  0  0  0  0  0  0  0
   -6.4716   -3.9113   -2.6319 N   0  0  0  0  0  0  0  0  0  0  0  0
   -8.2394   -1.8372   -5.1032 C   0  0  0  0  0  0  0  0  0  0  0  0
   -6.4197   -0.2775   -3.0449 C   0  0  0  0  0  0  0  0  0  0  0  0
   -7.3297    0.7031   -3.1053 C   0  0  0  0  0  0  0  0  0  0  0  0
   -7.3489   -0.7454    0.7650 C   0  0  0  0  0  0  0  0  0  0  0  0
   -5.6235    1.8641    1.4179 C   0  0  0  0  0  0  0  0  0  0  0  0
   -6.3261    2.8313    0.4660 C   0  0  0  0  0  0  0  0  0  0  0  0
   -6.8066    4.0581    1.1953 C   0  0  0  0  0  0  0  0  0  0  0  0
   -6.4955    4.3667    2.3362 O   0  0  0  0  0  0  0  0  0  0  0  0
   -7.6165    4.8335    0.4389 O   0  0  0  0  0  0  0  0  0  0  0  0
    1.6513   -0.7134    1.2407 C   0  0  0  0  0  0  0  0  0  0  0  0
    2.8493   -0.1304    1.3780 C   0  0  0  0  0  0  0  0  0  0  0  0
    3.4464    1.0893    0.8541 C   0  0  0  0  0  0  0  0  0  0  0  0
    4.7687    1.1343    1.1361 C   0  0  0  0  0  0  0  0  0  0  0  0
    5.0356   -0.0641    1.9926 C   0  0  0  0  0  0  0  0  0  0  0  0
    6.0836   -0.4014    2.5096 O   0  0  0  0  0  0  0  0  0  0  0  0
    3.8382   -0.7250    2.1032 N   0  0  0  0  0  0  0  0  0  0  0  0
    5.7411    2.1284    0.7463 C   0  0  0  0  0  0  0  0  0  0  0  0
    7.0704    2.0193    0.8761 C   0  0  0  0  0  0  0  0  0  0  0  0
    2.6514    2.1448    0.1567 C   0  0  0  0  0  0  0  0  0  0  0  0
    2.2620   -1.4129   -1.5170 H   0  0  0  0  0  0  0  0  0  0  0  0
    1.9655   -0.0022   -2.5438 H   0  0  0  0  0  0  0  0  0  0  0  0
    0.9849   -1.4692   -2.7324 H   0  0  0  0  0  0  0  0  0  0  0  0
   -0.7101    0.3278    1.8851 H   0  0  0  0  0  0  0  0  0  0  0  0
   -2.4091    0.5072   -2.6829 H   0  0  0  0  0  0  0  0  0  0  0  0
   -0.9578   -0.1604   -3.3959 H   0  0  0  0  0  0  0  0  0  0  0  0
    0.1822    2.0609   -3.2456 H   0  0  0  0  0  0  0  0  0  0  0  0
   -1.2615    2.7471   -2.4543 H   0  0  0  0  0  0  0  0  0  0  0  0
   -0.7923    4.1229   -4.2076 H   0  0  0  0  0  0  0  0  0  0  0  0
   -2.8261    2.1321   -0.5253 H   0  0  0  0  0  0  0  0  0  0  0  0
   -2.5870    1.8092    1.1803 H   0  0  0  0  0  0  0  0  0  0  0  0
   -3.0675   -1.2360   -0.8721 H   0  0  0  0  0  0  0  0  0  0  0  0
   -5.0065   -3.4898   -0.5191 H   0  0  0  0  0  0  0  0  0  0  0  0
   -6.2369   -4.8131   -2.2467 H   0  0  0  0  0  0  0  0  0  0  0  0
   -7.9281   -0.8371   -5.4192 H   0  0  0  0  0  0  0  0  0  0  0  0
   -9.3088   -1.8066   -4.8699 H   0  0  0  0  0  0  0  0  0  0  0  0
   -8.0996   -2.4993   -5.9642 H   0  0  0  0  0  0  0  0  0  0  0  0
   -5.3656   -0.0137   -2.9810 H   0  0  0  0  0  0  0  0  0  0  0  0
   -8.3945    0.4992   -3.1417 H   0  0  0  0  0  0  0  0  0  0  0  0
   -7.0116    1.7403   -3.1080 H   0  0  0  0  0  0  0  0  0  0  0  0
   -7.5204   -0.4772    1.8121 H   0  0  0  0  0  0  0  0  0  0  0  0
   -7.6343   -1.7944    0.6475 H   0  0  0  0  0  0  0  0  0  0  0  0
   -8.0134   -0.1410    0.1422 H   0  0  0  0  0  0  0  0  0  0  0  0
   -4.7838    2.3673    1.9130 H   0  0  0  0  0  0  0  0  0  0  0  0
   -6.3085    1.5668    2.2219 H   0  0  0  0  0  0  0  0  0  0  0  0
   -7.1897    2.3386    0.0051 H   0  0  0  0  0  0  0  0  0  0  0  0
   -5.6435    3.1516   -0.3292 H   0  0  0  0  0  0  0  0  0  0  0  0
   -7.7881    4.4832   -0.4558 H   0  0  0  0  0  0  0  0  0  0  0  0
    1.4604   -1.6510    1.7586 H   0  0  0  0  0  0  0  0  0  0  0  0
    3.7664   -1.5944    2.6089 H   0  0  0  0  0  0  0  0  0  0  0  0
    5.3646    3.0273    0.2647 H   0  0  0  0  0  0  0  0  0  0  0  0
    7.5481    1.1477    1.3153 H   0  0  0  0  0  0  0  0  0  0  0  0
    7.7301    2.8066    0.5239 H   0  0  0  0  0  0  0  0  0  0  0  0
    1.7137    2.3389    0.6886 H   0  0  0  0  0  0  0  0  0  0  0  0
    2.4310    1.8587   -0.8750 H   0  0  0  0  0  0  0  0  0  0  0  0
    3.1758    3.1048    0.1256 H   0  0  0  0  0  0  0  0  0  0  0  0
  1  2  1  0  0  0  0
  1 44  1  0  0  0  0
  1 45  1  0  0  0  0
  1 46  1  0  0  0  0
  2  3  2  0  0  0  0
  2  6  1  0  0  0  0
  3  4  1  0  0  0  0
  3 34  1  0  0  0  0
  4  5  1  0  0  0  0
  4 47  1  0  0  0  0
  5  6  2  0  0  0  0
  5 12  1  0  0  0  0
  6  7  1  0  0  0  0
  7  8  1  0  0  0  0
  7 48  1  0  0  0  0
  7 49  1  0  0  0  0
  8  9  1  0  0  0  0
  8 50  1  0  0  0  0
  8 51  1  0  0  0  0
  9 10  2  0  0  0  0
  9 11  1  0  0  0  0
 11 52  1  0  0  0  0
 12 13  1  0  0  0  0
 12 53  1  0  0  0  0
 12 54  1  0  0  0  0
 13 14  2  0  0  0  0
 13 17  1  0  0  0  0
 14 15  1  0  0  0  0
 14 29  1  0  0  0  0
 15 16  2  0  0  0  0
 15 28  1  0  0  0  0
 16 17  1  0  0  0  0
 16 18  1  0  0  0  0
 17 55  1  0  0  0  0
 18 19  2  3  0  0  0
 18 56  1  0  0  0  0
 19 20  1  0  0  0  0
 19 24  1  0  0  0  0
 20 21  2  0  0  0  0
 20 26  1  0  0  0  0
 21 22  1  0  0  0  0
 21 25  1  0  0  0  0
 22 23  2  0  0  0  0
 22 24  1  0  0  0  0
 24 57  1  0  0  0  0
 25 58  1  0  0  0  0
 25 59  1  0  0  0  0
 25 60  1  0  0  0  0
 26 27  2  0  0  0  0
 26 61  1  0  0  0  0
 27 62  1  0  0  0  0
 27 63  1  0  0  0  0
 28 64  1  0  0  0  0
 28 65  1  0  0  0  0
 28 66  1  0  0  0  0
 29 30  1  0  0  0  0
 29 67  1  0  0  0  0
 29 68  1  0  0  0  0
 30 31  1  0  0  0  0
 30 69  1  0  0  0  0
 30 70  1  0  0  0  0
 31 32  2  0  0  0  0
 31 33  1  0  0  0  0
 33 71  1  0  0  0  0
 34 35  2  3  0  0  0
 34 72  1  0  0  0  0
 35 36  1  0  0  0  0
 35 40  1  0  0  0  0
 36 37  2  0  0  0  0
 36 43  1  0  0  0  0
 37 38  1  0  0  0  0
 37 41  1  0  0  0  0
 38 39  2  0  0  0  0
 38 40  1  0  0  0  0
 40 73  1  0  0  0  0
 41 42  2  0  0  0  0
 41 74  1  0  0  0  0
 42 75  1  0  0  0  0
 42 76  1  0  0  0  0
 43 77  1  0  0  0  0
 43 78  1  0  0  0  0
 43 79  1  0  0  0  0
M  END
