
 OpenBabel10072619573D

 76 76  0  0  1  0  0  0  0  0999 V2000
    4.7611   -1.1507   -2.0237 C   0  0  0  0  0  0  0  0  0  0  0  0
    3.8699   -0.0791   -1.4112 C   0  0  0  0  0  0  0  0  0  0  0  0
    2.6943   -0.6003   -0.6484 N   0  0  0  0  0  0  0  0  0  0  0  0
    1.7013   -1.4132   -1.4426 C   0  0  0  0  0  0  0  0  0  0  0  0
    1.3415   -0.8138   -2.8126 C   0  0  0  0  0  0  0  0  0  0  0  0
    0.5054   -1.6999   -3.5875 O   0  0  0  0  0  0  0  0  0  0  0  0
   -0.8381   -1.5444   -3.4174 C   0  0  0  0  0  0  0  0  0  0  0  0
   -1.3227   -0.8431   -2.5490 O   0  0  0  0  0  0  0  0  0  0  0  0
   -1.4786   -2.2392   -4.4074 N   0  0  0  0  0  0  0  0  0  0  0  0
   -2.8574   -2.2772   -4.6969 C   0  0  0  0  0  0  0  0  0  0  0  0
   -3.8477   -1.7520   -3.8601 C   0  0  0  0  0  0  0  0  0  0  0  0
   -5.2073   -1.7942   -4.2185 C   0  0  0  0  0  0  0  0  0  0  0  0
   -5.5828   -2.3587   -5.4538 C   0  0  0  0  0  0  0  0  0  0  0  0
   -4.5869   -2.8866   -6.2863 C   0  0  0  0  0  0  0  0  0  0  0  0
   -3.2420   -2.8515   -5.9100 C   0  0  0  0  0  0  0  0  0  0  0  0
   -7.0189   -2.4218   -5.9070 C   0  0  0  0  0  0  0  0  0  0  0  0
   -6.2211   -1.2769   -3.3856 N   0  0  0  0  0  0  0  0  0  0  0  0
   -6.0994   -0.7783   -2.1191 C   0  0  0  0  0  0  0  0  0  0  0  0
   -5.1057   -0.7347   -1.4217 O   0  0  0  0  0  0  0  0  0  0  0  0
   -7.3250   -0.3321   -1.7190 O   0  0  0  0  0  0  0  0  0  0  0  0
   -7.3622    0.1482   -0.3631 C   0  0  3  0  0  0  0  0  0  0  0  0
   -6.8377    1.5839   -0.2863 C   0  0  0  0  0  0  0  0  0  0  0  0
   -8.8098    0.0748    0.1292 C   0  0  0  0  0  0  0  0  0  0  0  0
   -8.8803    0.4456    1.5134 O   0  0  0  0  0  0  0  0  0  0  0  0
   -8.6529   -0.5574    2.4011 C   0  0  0  0  0  0  0  0  0  0  0  0
   -8.5529   -1.7433    2.1199 O   0  0  0  0  0  0  0  0  0  0  0  0
   -8.4710   -0.0277    3.7852 C   0  0  0  0  0  0  0  0  0  0  0  0
   -8.5818    1.2814    4.0743 C   0  0  0  0  0  0  0  0  0  0  0  0
   -8.0932   -1.0330    4.8360 C   0  0  0  0  0  0  0  0  0  0  0  0
    3.0015   -1.2218    0.9379 S   0  0  0  0  0  0  0  0  0  0  0  0
    1.7352   -1.6777    1.4713 O   0  0  0  0  0  0  0  0  0  0  0  0
    4.0839   -2.1765    0.7888 O   0  0  0  0  0  0  0  0  0  0  0  0
    3.5815    0.2291    1.9067 C   0  0  0  0  0  0  0  0  0  0  0  0
    3.8140   -0.1280    3.3647 C   0  0  0  0  0  0  0  0  0  0  0  0
    4.7911   -1.2470    3.6969 C   0  0  0  0  0  0  0  0  0  0  0  0
    6.1921   -1.0180    3.1722 C   0  0  0  0  0  0  0  0  0  0  0  0
    7.1047   -2.1497    3.5997 C   0  0  0  0  0  0  0  0  0  0  0  0
    6.6872   -3.3440    3.1254 F   0  0  0  0  0  0  0  0  0  0  0  0
    8.3669   -1.9661    3.1349 F   0  0  0  0  0  0  0  0  0  0  0  0
    7.2029   -2.2604    4.9428 F   0  0  0  0  0  0  0  0  0  0  0  0
    6.1880   -0.9190    1.8163 F   0  0  0  0  0  0  0  0  0  0  0  0
    6.6772    0.1734    3.6217 F   0  0  0  0  0  0  0  0  0  0  0  0
    4.8534   -1.3584    5.0634 F   0  0  0  0  0  0  0  0  0  0  0  0
    4.2941   -2.4370    3.2758 F   0  0  0  0  0  0  0  0  0  0  0  0
    4.2521    1.0095    4.0062 F   0  0  0  0  0  0  0  0  0  0  0  0
    2.6201   -0.4068    3.9694 F   0  0  0  0  0  0  0  0  0  0  0  0
    4.7317    0.7602    1.3882 F   0  0  0  0  0  0  0  0  0  0  0  0
    2.6701    1.2532    1.8298 F   0  0  0  0  0  0  0  0  0  0  0  0
    5.4983   -0.6761   -2.6828 H   0  0  0  0  0  0  0  0  0  0  0  0
    4.1995   -1.8807   -2.6158 H   0  0  0  0  0  0  0  0  0  0  0  0
    5.3269   -1.6952   -1.2626 H   0  0  0  0  0  0  0  0  0  0  0  0
    3.5131    0.5918   -2.2016 H   0  0  0  0  0  0  0  0  0  0  0  0
    4.4724    0.5661   -0.7695 H   0  0  0  0  0  0  0  0  0  0  0  0
    0.7740   -1.4974   -0.8640 H   0  0  0  0  0  0  0  0  0  0  0  0
    2.0824   -2.4313   -1.5803 H   0  0  0  0  0  0  0  0  0  0  0  0
    2.2351   -0.6752   -3.4288 H   0  0  0  0  0  0  0  0  0  0  0  0
    0.8836    0.1793   -2.7169 H   0  0  0  0  0  0  0  0  0  0  0  0
   -0.8464   -2.6986   -5.0484 H   0  0  0  0  0  0  0  0  0  0  0  0
   -3.5554   -1.3063   -2.9166 H   0  0  0  0  0  0  0  0  0  0  0  0
   -4.8590   -3.3285   -7.2417 H   0  0  0  0  0  0  0  0  0  0  0  0
   -2.5040   -3.2634   -6.5933 H   0  0  0  0  0  0  0  0  0  0  0  0
   -7.6003   -3.0488   -5.2234 H   0  0  0  0  0  0  0  0  0  0  0  0
   -7.1172   -2.8485   -6.9111 H   0  0  0  0  0  0  0  0  0  0  0  0
   -7.4580   -1.4183   -5.9401 H   0  0  0  0  0  0  0  0  0  0  0  0
   -7.1716   -1.2868   -3.7181 H   0  0  0  0  0  0  0  0  0  0  0  0
   -6.7464   -0.4907    0.2826 H   0  0  0  0  0  0  0  0  0  0  0  0
   -7.4099    2.2562   -0.9351 H   0  0  0  0  0  0  0  0  0  0  0  0
   -5.7964    1.6491   -0.6173 H   0  0  0  0  0  0  0  0  0  0  0  0
   -6.8880    1.9592    0.7399 H   0  0  0  0  0  0  0  0  0  0  0  0
   -9.2384   -0.9190   -0.0476 H   0  0  0  0  0  0  0  0  0  0  0  0
   -9.4349    0.7761   -0.4355 H   0  0  0  0  0  0  0  0  0  0  0  0
   -8.8301    2.0251    3.3233 H   0  0  0  0  0  0  0  0  0  0  0  0
   -8.4217    1.6470    5.0840 H   0  0  0  0  0  0  0  0  0  0  0  0
   -7.4084   -1.7910    4.4395 H   0  0  0  0  0  0  0  0  0  0  0  0
   -8.9864   -1.5350    5.2246 H   0  0  0  0  0  0  0  0  0  0  0  0
   -7.5782   -0.5531    5.6774 H   0  0  0  0  0  0  0  0  0  0  0  0
  1  2  1  0  0  0  0
  1 49  1  0  0  0  0
  1 50  1  0  0  0  0
  1 51  1  0  0  0  0
  2  3  1  0  0  0  0
  2 52  1  0  0  0  0
  2 53  1  0  0  0  0
  3  4  1  0  0  0  0
  3 30  1  0  0  0  0
  4  5  1  0  0  0  0
  4 54  1  0  0  0  0
  4 55  1  0  0  0  0
  5  6  1  0  0  0  0
  5 56  1  0  0  0  0
  5 57  1  0  0  0  0
  6  7  1  0  0  0  0
  7  8  2  0  0  0  0
  7  9  1  0  0  0  0
  9 10  1  0  0  0  0
  9 58  1  0  0  0  0
 10 11  2  0  0  0  0
 10 15  1  0  0  0  0
 11 12  1  0  0  0  0
 11 59  1  0  0  0  0
 12 13  2  0  0  0  0
 12 17  1  0  0  0  0
 13 14  1  0  0  0  0
 13 16  1  0  0  0  0
 14 15  2  0  0  0  0
 14 60  1  0  0  0  0
 15 61  1  0  0  0  0
 16 62  1  0  0  0  0
 16 63  1  0  0  0  0
 16 64  1  0  0  0  0
 17 18  1  0  0  0  0
 17 65  1  0  0  0  0
 18 19  2  0  0  0  0
 18 20  1  0  0  0  0
 20 21  1  0  0  0  0
 21 22  1  0  0  0  0
 21 23  1  0  0  0  0
 21 66  1  0  0  0  0
 22 67  1  0  0  0  0
 22 68  1  0  0  0  0
 22 69  1  0  0  0  0
 23 24  1  0  0  0  0
 23 70  1  0  0  0  0
 23 71  1  0  0  0  0
 24 25  1  0  0  0  0
 25 26  2  0  0  0  0
 25 27  1  0  0  0  0
 27 28  2  0  0  0  0
 27 29  1  0  0  0  0
 28 72  1  0  0  0  0
 28 73  1  0  0  0  0
 29 74  1  0  0  0  0
 29 75  1  0  0  0  0
 29 76  1  0  0  0  0
 30 31  2  0  0  0  0
 30 32  2  0  0  0  0
 30 33  1  0  0  0  0
 33 34  1  0  0  0  0
 33 47  1  0  0  0  0
 33 48  1  0  0  0  0
 34 35  1  0  0  0  0
 34 45  1  0  0  0  0
 34 46  1  0  0  0  0
 35 36  1  0  0  0  0
 35 43  1  0  0  0  0
 35 44  1  0  0  0  0
 36 37  1  0  0  0  0
 36 41  1  0  0  0  0
 36 42  1  0  0  0  0
 37 38  1  0  0  0  0
 37 39  1  0  0  0  0
 37 40  1  0  0  0  0
M  END
