
 OpenBabel10072620003D

 50 51  0  0  1  0  0  0  0  0999 V2000
   -0.2758    1.9435   -4.5534 C   0  0  0  0  0  0  0  0  0  0  0  0
   -0.9795    0.8016   -3.8811 C   0  0  0  0  0  0  0  0  0  0  0  0
   -1.2649   -0.3768   -4.5766 C   0  0  0  0  0  0  0  0  0  0  0  0
   -1.8765   -1.4670   -3.9352 C   0  0  0  0  0  0  0  0  0  0  0  0
   -2.1810   -1.3756   -2.5606 C   0  0  0  0  0  0  0  0  0  0  0  0
   -1.9425   -0.1791   -1.8594 C   0  0  0  0  0  0  0  0  0  0  0  0
   -1.3155    0.8873   -2.5257 C   0  0  0  0  0  0  0  0  0  0  0  0
   -2.3519    0.0131   -0.4253 C   0  0  0  0  0  0  0  0  0  0  0  0
   -2.8193   -2.4680   -1.9193 N   0  0  0  0  0  0  0  0  0  0  0  0
   -2.2164   -3.3149   -0.9764 C   0  0  0  0  0  0  0  0  0  0  0  0
   -0.5936   -3.2637   -0.5470 S   0  0  0  0  0  0  0  0  0  0  0  0
   -3.1558   -4.2647   -0.5016 N   0  0  0  0  0  0  0  0  0  0  0  0
   -4.5341   -3.8235   -0.2039 C   0  0  0  0  0  0  0  0  0  0  0  0
   -5.5713   -4.2231   -1.2584 C   0  0  0  0  0  0  0  0  0  0  0  0
   -6.8417   -3.6971   -0.8705 O   0  0  0  0  0  0  0  0  0  0  0  0
   -7.8459   -3.9670   -1.8392 C   0  0  0  0  0  0  0  0  0  0  0  0
   -2.8358   -5.6658   -0.1223 C   0  0  3  0  0  0  0  0  0  0  0  0
   -1.9077   -6.3678   -1.1211 C   0  0  0  0  0  0  0  0  0  0  0  0
   -2.4330   -5.8251    1.3304 C   0  0  0  0  0  0  0  0  0  0  0  0
   -2.2279   -4.8813    2.3226 C   0  0  0  0  0  0  0  0  0  0  0  0
   -1.9254   -5.4629    3.5896 C   0  0  0  0  0  0  0  0  0  0  0  0
   -1.9179   -6.8366    3.5379 C   0  0  0  0  0  0  0  0  0  0  0  0
   -2.2811   -7.4195    1.9777 S   0  0  0  0  0  0  0  0  0  0  0  0
   -2.1541   -2.7129   -4.7319 C   0  0  0  0  0  0  0  0  0  0  0  0
   -0.3422    1.8683   -5.6439 H   0  0  0  0  0  0  0  0  0  0  0  0
    0.7813    1.9480   -4.2688 H   0  0  0  0  0  0  0  0  0  0  0  0
   -0.7289    2.8975   -4.2638 H   0  0  0  0  0  0  0  0  0  0  0  0
   -0.9966   -0.4530   -5.6289 H   0  0  0  0  0  0  0  0  0  0  0  0
   -1.1005    1.8052   -1.9811 H   0  0  0  0  0  0  0  0  0  0  0  0
   -3.2731   -0.5318   -0.1958 H   0  0  0  0  0  0  0  0  0  0  0  0
   -2.5628    1.0687   -0.2207 H   0  0  0  0  0  0  0  0  0  0  0  0
   -1.5563   -0.3140    0.2483 H   0  0  0  0  0  0  0  0  0  0  0  0
   -3.3612   -3.0379   -2.5524 H   0  0  0  0  0  0  0  0  0  0  0  0
   -4.5504   -2.7341   -0.0762 H   0  0  0  0  0  0  0  0  0  0  0  0
   -4.8269   -4.2304    0.7728 H   0  0  0  0  0  0  0  0  0  0  0  0
   -5.6418   -5.3132   -1.3404 H   0  0  0  0  0  0  0  0  0  0  0  0
   -5.2998   -3.8222   -2.2401 H   0  0  0  0  0  0  0  0  0  0  0  0
   -8.7856   -3.5281   -1.4931 H   0  0  0  0  0  0  0  0  0  0  0  0
   -7.9825   -5.0462   -1.9533 H   0  0  0  0  0  0  0  0  0  0  0  0
   -7.5833   -3.5148   -2.8006 H   0  0  0  0  0  0  0  0  0  0  0  0
   -3.7930   -6.1980   -0.2214 H   0  0  0  0  0  0  0  0  0  0  0  0
   -0.8550   -6.1099   -0.9808 H   0  0  0  0  0  0  0  0  0  0  0  0
   -2.1891   -6.1238   -2.1519 H   0  0  0  0  0  0  0  0  0  0  0  0
   -1.9749   -7.4562   -1.0167 H   0  0  0  0  0  0  0  0  0  0  0  0
   -2.2985   -3.8121    2.1574 H   0  0  0  0  0  0  0  0  0  0  0  0
   -1.7293   -4.9001    4.4938 H   0  0  0  0  0  0  0  0  0  0  0  0
   -1.7287   -7.5299    4.3459 H   0  0  0  0  0  0  0  0  0  0  0  0
   -1.7559   -2.6418   -5.7494 H   0  0  0  0  0  0  0  0  0  0  0  0
   -3.2333   -2.8794   -4.8112 H   0  0  0  0  0  0  0  0  0  0  0  0
   -1.6843   -3.5819   -4.2599 H   0  0  0  0  0  0  0  0  0  0  0  0
  1  2  1  0  0  0  0
  1 25  1  0  0  0  0
  1 26  1  0  0  0  0
  1 27  1  0  0  0  0
  2  3  2  0  0  0  0
  2  7  1  0  0  0  0
  3  4  1  0  0  0  0
  3 28  1  0  0  0  0
  4  5  2  0  0  0  0
  4 24  1  0  0  0  0
  5  6  1  0  0  0  0
  5  9  1  0  0  0  0
  6  7  2  0  0  0  0
  6  8  1  0  0  0  0
  7 29  1  0  0  0  0
  8 30  1  0  0  0  0
  8 31  1  0  0  0  0
  8 32  1  0  0  0  0
  9 10  1  0  0  0  0
  9 33  1  0  0  0  0
 10 11  2  0  0  0  0
 10 12  1  0  0  0  0
 12 13  1  0  0  0  0
 12 17  1  0  0  0  0
 13 14  1  0  0  0  0
 13 34  1  0  0  0  0
 13 35  1  0  0  0  0
 14 15  1  0  0  0  0
 14 36  1  0  0  0  0
 14 37  1  0  0  0  0
 15 16  1  0  0  0  0
 16 38  1  0  0  0  0
 16 39  1  0  0  0  0
 16 40  1  0  0  0  0
 17 18  1  0  0  0  0
 17 19  1  0  0  0  0
 17 41  1  0  0  0  0
 18 42  1  0  0  0  0
 18 43  1  0  0  0  0
 18 44  1  0  0  0  0
 19 20  2  0  0  0  0
 19 23  1  0  0  0  0
 20 21  1  0  0  0  0
 20 45  1  0  0  0  0
 21 22  2  0  0  0  0
 21 46  1  0  0  0  0
 22 23  1  0  0  0  0
 22 47  1  0  0  0  0
 24 48  1  0  0  0  0
 24 49  1  0  0  0  0
 24 50  1  0  0  0  0
M  END
