
 OpenBabel10072620043D

 50 52  0  0  0  0  0  0  0  0999 V2000
    2.9832    2.4428    2.1212 C   0  0  0  0  0  0  0  0  0  0  0  0
    1.5142    2.2176    1.9599 C   0  0  0  0  0  0  0  0  0  0  0  0
    0.6735    1.8406    2.9975 C   0  0  0  0  0  0  0  0  0  0  0  0
   -0.9447    1.7493    2.4895 S   0  0  0  0  0  0  0  0  0  0  0  0
   -0.5932    2.2992    0.9044 C   0  0  0  0  0  0  0  0  0  0  0  0
    0.7813    2.4015    0.7121 C   0  0  0  0  0  0  0  0  0  0  0  0
    1.3541    2.6978   -0.6074 C   0  0  0  0  0  0  0  0  0  0  0  0
    0.7555    3.3038   -1.4907 O   0  0  0  0  0  0  0  0  0  0  0  0
    2.6019    2.1661   -0.7654 O   0  0  0  0  0  0  0  0  0  0  0  0
    3.1696    2.3413   -2.0654 C   0  0  0  0  0  0  0  0  0  0  0  0
   -1.5645    2.6210   -0.0100 N   0  0  0  0  0  0  0  0  0  0  0  0
   -2.9333    2.6119    0.2170 C   0  0  0  0  0  0  0  0  0  0  0  0
   -3.8330    3.6074    0.0574 C   0  0  0  0  0  0  0  0  0  0  0  0
   -5.2002    3.3289    0.3508 C   0  0  0  0  0  0  0  0  0  0  0  0
   -6.2982    3.0589    0.6095 N   0  0  0  0  0  0  0  0  0  0  0  0
   -3.3676    4.9238   -0.2718 C   0  0  0  0  0  0  0  0  0  0  0  0
   -2.2012    5.2043   -0.8288 N   0  0  0  0  0  0  0  0  0  0  0  0
   -1.9678    6.5679   -0.8746 C   0  0  0  0  0  0  0  0  0  0  0  0
   -3.0073    7.3459   -0.4141 C   0  0  0  0  0  0  0  0  0  0  0  0
   -4.2840    6.3427    0.1398 S   0  0  0  0  0  0  0  0  0  0  0  0
   -0.7059    7.0667   -1.4063 C   0  0  0  0  0  0  0  0  0  0  0  0
   -0.0848    6.3533   -2.4410 C   0  0  0  0  0  0  0  0  0  0  0  0
    1.1403    6.7632   -2.9756 C   0  0  0  0  0  0  0  0  0  0  0  0
    1.7617    7.9040   -2.4782 C   0  0  0  0  0  0  0  0  0  0  0  0
    1.1796    8.5919   -1.4096 C   0  0  0  0  0  0  0  0  0  0  0  0
   -0.0521    8.1843   -0.8771 C   0  0  0  0  0  0  0  0  0  0  0  0
    2.9511    8.4072   -2.9279 O   0  0  0  0  0  0  0  0  0  0  0  0
    3.2934    8.0901   -4.2741 C   0  0  0  0  0  0  0  0  0  0  0  0
    1.0320    1.5274    4.3790 C   0  0  0  0  0  0  0  0  0  0  0  0
    2.1623    1.1643    4.7067 O   0  0  0  0  0  0  0  0  0  0  0  0
   -0.0107    1.6839    5.4594 C   0  0  0  0  0  0  0  0  0  0  0  0
    3.2375    2.8046    3.1220 H   0  0  0  0  0  0  0  0  0  0  0  0
    3.3268    3.2096    1.4263 H   0  0  0  0  0  0  0  0  0  0  0  0
    3.5341    1.5222    1.9251 H   0  0  0  0  0  0  0  0  0  0  0  0
    4.0320    1.6713   -2.1471 H   0  0  0  0  0  0  0  0  0  0  0  0
    3.5142    3.3736   -2.1768 H   0  0  0  0  0  0  0  0  0  0  0  0
    2.4594    2.0837   -2.8603 H   0  0  0  0  0  0  0  0  0  0  0  0
   -1.2907    3.3779   -0.6643 H   0  0  0  0  0  0  0  0  0  0  0  0
   -3.2608    1.6355    0.5792 H   0  0  0  0  0  0  0  0  0  0  0  0
   -3.0931    8.4234   -0.3716 H   0  0  0  0  0  0  0  0  0  0  0  0
   -0.5462    5.4471   -2.8296 H   0  0  0  0  0  0  0  0  0  0  0  0
    1.5875    6.1600   -3.7573 H   0  0  0  0  0  0  0  0  0  0  0  0
    1.6918    9.4531   -0.9857 H   0  0  0  0  0  0  0  0  0  0  0  0
   -0.4657    8.7321   -0.0348 H   0  0  0  0  0  0  0  0  0  0  0  0
    4.1130    8.7493   -4.5766 H   0  0  0  0  0  0  0  0  0  0  0  0
    2.4577    8.2690   -4.9590 H   0  0  0  0  0  0  0  0  0  0  0  0
    3.6503    7.0593   -4.3553 H   0  0  0  0  0  0  0  0  0  0  0  0
   -0.5220    2.6428    5.3469 H   0  0  0  0  0  0  0  0  0  0  0  0
    0.4853    1.6888    6.4377 H   0  0  0  0  0  0  0  0  0  0  0  0
   -0.7228    0.8560    5.4225 H   0  0  0  0  0  0  0  0  0  0  0  0
  1  2  1  0  0  0  0
  1 32  1  0  0  0  0
  1 33  1  0  0  0  0
  1 34  1  0  0  0  0
  2  3  2  0  0  0  0
  2  6  1  0  0  0  0
  3  4  1  0  0  0  0
  3 29  1  0  0  0  0
  4  5  1  0  0  0  0
  5  6  2  0  0  0  0
  5 11  1  0  0  0  0
  6  7  1  0  0  0  0
  7  8  2  0  0  0  0
  7  9  1  0  0  0  0
  9 10  1  0  0  0  0
 10 35  1  0  0  0  0
 10 36  1  0  0  0  0
 10 37  1  0  0  0  0
 11 12  1  0  0  0  0
 11 38  1  0  0  0  0
 12 13  2  0  0  0  0
 12 39  1  0  0  0  0
 13 14  1  0  0  0  0
 13 16  1  0  0  0  0
 14 15  3  0  0  0  0
 16 17  2  0  0  0  0
 16 20  1  0  0  0  0
 17 18  1  0  0  0  0
 18 19  2  0  0  0  0
 18 21  1  0  0  0  0
 19 20  1  0  0  0  0
 19 40  1  0  0  0  0
 21 22  2  0  0  0  0
 21 26  1  0  0  0  0
 22 23  1  0  0  0  0
 22 41  1  0  0  0  0
 23 24  2  0  0  0  0
 23 42  1  0  0  0  0
 24 25  1  0  0  0  0
 24 27  1  0  0  0  0
 25 26  2  0  0  0  0
 25 43  1  0  0  0  0
 26 44  1  0  0  0  0
 27 28  1  0  0  0  0
 28 45  1  0  0  0  0
 28 46  1  0  0  0  0
 28 47  1  0  0  0  0
 29 30  2  0  0  0  0
 29 31  1  0  0  0  0
 31 48  1  0  0  0  0
 31 49  1  0  0  0  0
 31 50  1  0  0  0  0
M  END
