
 OpenBabel10072619573D

 33 34  0  0  0  0  0  0  0  0999 V2000
    1.0462   -0.2806   -0.0042 C   0  0  0  0  0  0  0  0  0  0  0  0
    2.4679    0.2459   -0.1284 C   0  0  0  0  0  0  0  0  0  0  0  0
    2.8244    1.1031    0.9960 N   0  0  0  0  0  0  0  0  0  0  0  0
    3.3929    0.5560    2.1278 C   0  0  0  0  0  0  0  0  0  0  0  0
    3.6457   -0.6345    2.2848 O   0  0  0  0  0  0  0  0  0  0  0  0
    3.6705    1.5925    3.1811 C   0  0  0  0  0  0  0  0  0  0  0  0
    3.0939    3.1579    2.5039 S   0  0  0  0  0  0  0  0  0  0  0  0
    2.5480    2.4485    1.0115 C   0  0  0  0  0  0  0  0  0  0  0  0
    1.9668    3.0148    0.0165 N   0  0  0  0  0  0  0  0  0  0  0  0
    1.6333    4.5939    0.0138 S   0  0  0  0  0  0  0  0  0  0  0  0
    0.6406    4.8740    1.0329 O   0  0  0  0  0  0  0  0  0  0  0  0
    2.8638    5.3550   -0.0696 O   0  0  0  0  0  0  0  0  0  0  0  0
    0.8245    4.8088   -1.5623 C   0  0  0  0  0  0  0  0  0  0  0  0
   -0.4946    5.2624   -1.6227 C   0  0  0  0  0  0  0  0  0  0  0  0
   -1.1121    5.4072   -2.8663 C   0  0  0  0  0  0  0  0  0  0  0  0
   -0.4171    5.1042   -4.0455 C   0  0  0  0  0  0  0  0  0  0  0  0
    0.9106    4.6597   -3.9680 C   0  0  0  0  0  0  0  0  0  0  0  0
    1.5344    4.5112   -2.7291 C   0  0  0  0  0  0  0  0  0  0  0  0
   -1.0760    5.2572   -5.3852 C   0  0  0  0  0  0  0  0  0  0  0  0
    0.8017   -0.9199   -0.8580 H   0  0  0  0  0  0  0  0  0  0  0  0
    0.3216    0.5396    0.0273 H   0  0  0  0  0  0  0  0  0  0  0  0
    0.9240   -0.8689    0.9110 H   0  0  0  0  0  0  0  0  0  0  0  0
    2.5706    0.8096   -1.0622 H   0  0  0  0  0  0  0  0  0  0  0  0
    3.1661   -0.5971   -0.1746 H   0  0  0  0  0  0  0  0  0  0  0  0
    4.7440    1.6375    3.3796 H   0  0  0  0  0  0  0  0  0  0  0  0
    3.1194    1.3481    4.0925 H   0  0  0  0  0  0  0  0  0  0  0  0
   -1.0450    5.5037   -0.7161 H   0  0  0  0  0  0  0  0  0  0  0  0
   -2.1406    5.7602   -2.9083 H   0  0  0  0  0  0  0  0  0  0  0  0
    1.4647    4.4306   -4.8760 H   0  0  0  0  0  0  0  0  0  0  0  0
    2.5663    4.1722   -2.6784 H   0  0  0  0  0  0  0  0  0  0  0  0
   -2.1132    5.5939   -5.2867 H   0  0  0  0  0  0  0  0  0  0  0  0
   -1.0841    4.2981   -5.9129 H   0  0  0  0  0  0  0  0  0  0  0  0
   -0.5377    5.9960   -5.9871 H   0  0  0  0  0  0  0  0  0  0  0  0
  1  2  1  0  0  0  0
  1 20  1  0  0  0  0
  1 21  1  0  0  0  0
  1 22  1  0  0  0  0
  2  3  1  0  0  0  0
  2 23  1  0  0  0  0
  2 24  1  0  0  0  0
  3  4  1  0  0  0  0
  3  8  1  0  0  0  0
  4  5  2  0  0  0  0
  4  6  1  0  0  0  0
  6  7  1  0  0  0  0
  6 25  1  0  0  0  0
  6 26  1  0  0  0  0
  7  8  1  0  0  0  0
  8  9  2  3  0  0  0
  9 10  1  0  0  0  0
 10 11  2  0  0  0  0
 10 12  2  0  0  0  0
 10 13  1  0  0  0  0
 13 14  2  0  0  0  0
 13 18  1  0  0  0  0
 14 15  1  0  0  0  0
 14 27  1  0  0  0  0
 15 16  2  0  0  0  0
 15 28  1  0  0  0  0
 16 17  1  0  0  0  0
 16 19  1  0  0  0  0
 17 18  2  0  0  0  0
 17 29  1  0  0  0  0
 18 30  1  0  0  0  0
 19 31  1  0  0  0  0
 19 32  1  0  0  0  0
 19 33  1  0  0  0  0
M  END
