
 OpenBabel10072619593D

 21 21  0  0  0  0  0  0  0  0999 V2000
    1.0623   -0.5831   -0.0465 C   0  0  0  0  0  0  0  0  0  0  0  0
    2.4639    0.0008   -0.0670 C   0  0  0  0  0  0  0  0  0  0  0  0
    2.9845    0.2181    1.2695 N   0  0  0  0  0  0  0  0  0  0  0  0
    2.8775    1.3628    2.0127 C   0  0  0  0  0  0  0  0  0  0  0  0
    3.4893    1.0989    3.2167 C   0  0  0  0  0  0  0  0  0  0  0  0
    3.9643   -0.2269    3.0806 C   0  0  0  0  0  0  0  0  0  0  0  0
    3.6586   -0.7623    1.8968 N   0  0  0  0  0  0  0  0  0  0  0  0
    3.6515    1.9448    4.3558 C   0  0  0  0  0  0  0  0  0  0  0  0
    3.0243    3.0964    4.6753 C   0  0  0  0  0  0  0  0  0  0  0  0
    2.0117    3.6970    3.8765 C   0  0  0  0  0  0  0  0  0  0  0  0
    1.1877    4.1967    3.2309 N   0  0  0  0  0  0  0  0  0  0  0  0
    3.3663    3.7488    5.8955 C   0  0  0  0  0  0  0  0  0  0  0  0
    3.6598    4.2607    6.8939 N   0  0  0  0  0  0  0  0  0  0  0  0
    0.7048   -0.7498   -1.0673 H   0  0  0  0  0  0  0  0  0  0  0  0
    0.3612    0.0928    0.4548 H   0  0  0  0  0  0  0  0  0  0  0  0
    1.0387   -1.5407    0.4843 H   0  0  0  0  0  0  0  0  0  0  0  0
    2.4706    0.9656   -0.5864 H   0  0  0  0  0  0  0  0  0  0  0  0
    3.1553   -0.6686   -0.5906 H   0  0  0  0  0  0  0  0  0  0  0  0
    2.3798    2.2300    1.6029 H   0  0  0  0  0  0  0  0  0  0  0  0
    4.5166   -0.8280    3.7926 H   0  0  0  0  0  0  0  0  0  0  0  0
    4.3869    1.5773    5.0752 H   0  0  0  0  0  0  0  0  0  0  0  0
  1  2  1  0  0  0  0
  1 14  1  0  0  0  0
  1 15  1  0  0  0  0
  1 16  1  0  0  0  0
  2  3  1  0  0  0  0
  2 17  1  0  0  0  0
  2 18  1  0  0  0  0
  3  4  1  0  0  0  0
  3  7  1  0  0  0  0
  4  5  2  0  0  0  0
  4 19  1  0  0  0  0
  5  6  1  0  0  0  0
  5  8  1  0  0  0  0
  6  7  2  0  0  0  0
  6 20  1  0  0  0  0
  8  9  2  0  0  0  0
  8 21  1  0  0  0  0
  9 10  1  0  0  0  0
  9 12  1  0  0  0  0
 10 11  3  0  0  0  0
 12 13  3  0  0  0  0
M  END
